AquaCrop 6.0 (March 2017) - Output created on (date) : 8/4/2019   at (time) : 1:13:38 PM

    RunNr     Day1   Month1    Year1     Rain      ETo       GD     CO2      Irri   Infilt   Runoff    Drain   Upflow        E     E/Ex       Tr      TrW   Tr/Trx    SaltIn   SaltOut    SaltUp  SaltProf     Cycle   SaltStr  FertStr  WeedStr  TempStr   ExpStr   StoStr  BioMass  Brelative   HI     Yield     WPet     DayN   MonthN    YearN
                                           mm       mm    °C.day    ppm        mm       mm       mm       mm       mm       mm        %       mm       mm        %    ton/ha    ton/ha    ton/ha    ton/ha      days       %        %        %        %        %        %    ton/ha        %       %    ton/ha    kg/m3

   Tot(1)       23       11     2007    387.8    407.9   2416.0   384.70    618.0    961.1     44.7    599.3      0.0    183.9       48     55.5     55.0      100     1.978     1.352     0.000     0.626      184        0        0        0       17        0        0     3.679       64     50.4    1.853     0.77        6        6     2008  project.PRO

   Tot(1)       23       11     2007    387.8    407.9   2416.0   384.70    618.0    961.3     44.5    599.5      0.0    186.4       48     50.9     50.4      100     1.978     1.353     0.000     0.625      184        0        0        0       17        0        0     3.426       66     50.4    1.727     0.73        6        6     2008  project.PRO

   Tot(1)       23       11     2007    387.8    407.9   2416.0   384.70    618.0    961.1     44.7    599.3      0.0    184.6       48     54.0     53.5      100     1.978     1.352     0.000     0.625      184        0        0        0       17        0        0     3.597       65     50.4    1.812     0.76        6        6     2008  project.PRO

   Tot(1)       23       11     2007    387.8    407.9   2416.0   384.70    618.0    961.3     44.5    599.5      0.0    185.9       48     51.7     51.2      100     1.978     1.353     0.000     0.625      184        0        0        0       17        0        0     3.473       66     50.4    1.750     0.74        6        6     2008  project.PRO

   Tot(1)       23       11     2007    387.8    407.9   2416.0   384.70    618.0    961.3     44.5    599.5      0.0    186.8       48     50.1     49.6      100     1.978     1.353     0.000     0.624      184        0        0        0       17        0        0     3.386       67     50.4    1.707     0.72        6        6     2008  project.PRO

   Tot(1)       23       11     2007    387.8    407.9   2416.0   384.70    618.0    961.1     44.7    599.2      0.0    183.6       48     56.1     55.5      100     1.978     1.352     0.000     0.626      184        0        0        0       17        0        0     3.711       64     50.4    1.869     0.78        6        6     2008  project.PRO

   Tot(1)       23       11     2007    387.8    407.9   2416.0   384.70    618.0    961.1     44.7    599.4      0.0    185.1       48     53.0     52.5      100     1.978     1.352     0.000     0.625      184        0        0        0       17        0        0     3.545       65     50.4    1.786     0.75        6        6     2008  project.PRO

   Tot(1)       23       11     2007    387.8    407.9   2416.0   384.70    618.0    961.3     44.5    599.5      0.0    186.1       48     51.3     50.8      100     1.978     1.353     0.000     0.625      184        0        0        0       17        0        0     3.452       66     50.4    1.740     0.73        6        6     2008  project.PRO

   Tot(1)       23       11     2007    387.8    407.9   2416.0   384.70    618.0    961.1     44.7    599.4      0.0    185.1       48     53.0     52.5      100     1.978     1.352     0.000     0.625      184        0        0        0       17        0        0     3.545       65     50.4    1.786     0.75        6        6     2008  project.PRO

   Tot(1)       23       11     2007    387.8    407.9   2416.0   384.70    618.0    961.3     44.5    599.5      0.0    186.8       48     50.1     49.6      100     1.978     1.353     0.000     0.624      184        0        0        0       17        0        0     3.386       67     50.4    1.707     0.72        6        6     2008  project.PRO

   Tot(1)       23       11     2007    387.8    407.9   2416.0   384.70    618.0    961.3     44.5    599.5      0.0    187.4       48     48.9     48.5      100     1.978     1.353     0.000     0.624      184        0        0        0       17        0        0     3.324       68     50.4    1.674     0.71        6        6     2008  project.PRO

   Tot(1)       23       11     2007    387.8    407.9   2416.0   384.70    618.0    961.1     44.7    599.2      0.0    183.4       48     56.6     56.1      100     1.978     1.351     0.000     0.626      184        0        0        0       17        0        0     3.740       64     50.4    1.884     0.78        6        6     2008  project.PRO

   Tot(1)       23       11     2007    387.8    407.9   2416.0   384.70    618.0    961.3     44.5    599.5      0.0    186.9       48     49.7     49.3      100     1.978     1.353     0.000     0.624      184        0        0        0       17        0        0     3.367       67     50.4    1.697     0.72        6        6     2008  project.PRO

   Tot(1)       23       11     2007    387.8    407.9   2416.0   384.70    618.0    961.1     44.7    599.3      0.0    184.4       48     54.5     53.9      100     1.978     1.352     0.000     0.626      184        0        0        0       17        0        0     3.622       65     50.4    1.825     0.76        6        6     2008  project.PRO

   Tot(1)       23       11     2007    387.8    407.9   2416.0   384.70    618.0    961.3     44.5    599.5      0.0    185.9       48     51.7     51.2      100     1.978     1.353     0.000     0.625      184        0        0        0       17        0        0     3.473       66     50.4    1.750     0.74        6        6     2008  project.PRO

   Tot(1)       23       11     2007    387.8    407.9   2416.0   384.70    618.0    961.1     44.7    599.4      0.0    185.1       48     53.0     52.5      100     1.978     1.352     0.000     0.625      184        0        0        0       17        0        0     3.545       65     50.4    1.786     0.75        6        6     2008  project.PRO

   Tot(1)       23       11     2007    387.8    407.9   2416.0   384.70    618.0    961.1     44.7    599.2      0.0    183.6       48     56.1     55.5      100     1.978     1.352     0.000     0.626      184        0        0        0       17        0        0     3.711       64     50.4    1.869     0.78        6        6     2008  project.PRO

   Tot(1)       23       11     2007    387.8    407.9   2416.0   384.70    618.0    961.1     44.7    599.4      0.0    185.1       48     53.0     52.5      100     1.978     1.352     0.000     0.625      184        0        0        0       17        0        0     3.545       65     50.4    1.786     0.75        6        6     2008  project.PRO

   Tot(1)       23       11     2007    387.8    407.9   2416.0   384.70    618.0    961.1     44.7    599.4      0.0    184.9       48     53.5     53.0      100     1.978     1.352     0.000     0.625      184        0        0        0       17        0        0     3.568       65     50.4    1.798     0.75        6        6     2008  project.PRO

   Tot(1)       23       11     2007    387.8    407.9   2416.0   384.70    618.0    961.3     44.5    599.5      0.0    186.1       48     51.3     50.8      100     1.978     1.353     0.000     0.625      184        0        0        0       17        0        0     3.452       66     50.4    1.740     0.73        6        6     2008  project.PRO

