AquaCrop 6.0 (March 2017) - Output created on (date) : 8/4/2019   at (time) : 1:18:06 PM

   Day Month  Year   DAP Stage   WC(1.55)   Rain     Irri   Surf   Infilt   RO    Drain       CR    Zgwt       Ex       E     E/Ex     Trx       Tr  Tr/Trx    ETx      ET  ET/ETx      GD       Z     StExp  StSto  StSen StSalt StWeed   CC      CCw     StTr  Kc(Tr)     Trx       Tr      TrW  Tr/Trx   WP    Biomass     HI  YieldPart  Brelative    WPet  WC(1.55) Wr(1.50)     Z       Wr    Wr(SAT)    Wr(FC)   Wr(exp)   Wr(sto)   Wr(sen)   Wr(PWP)    SaltIn    SaltOut   SaltUp   Salt(1.55)  SaltZ     Z       ECe    ECsw   StSalt  Zgwt    ECgw       WC01       WC 2       WC 3       WC 4       WC 5       WC 6       WC 7       WC 8       WC 9       WC10       WC11       WC12      ECe01      ECe 2      ECe 3      ECe 4      ECe 5      ECe 6      ECe 7      ECe 8      ECe 9      ECe10      ECe11      ECe12     Rain       ETo      Tmin      Tavg      Tmax      CO2
                                      mm      mm       mm     mm     mm     mm       mm       mm      m        mm       mm     %        mm       mm    %        mm      mm       %    °C-day     m       %      %      %      %      %      %       %       %       -        mm       mm       mm    %     g/m2    ton/ha      %    ton/ha       %       kg/m3      mm       mm       m       mm        mm        mm        mm        mm        mm         mm    ton/ha    ton/ha    ton/ha    ton/ha    ton/ha     m      dS/m    dS/m      %     m      dS/m       0.05       0.15       0.25       0.35       0.45       0.55       0.67       0.82       0.97       1.13       1.27       1.45       0.05       0.15       0.25       0.35       0.45       0.55       0.67       0.82       0.97       1.13       1.27       1.45       mm        mm       °C        °C        °C       ppm
    23    11  2007     1     1     321.6     0.0      0.0    0.0    0.0    0.0      0.0      0.0   -9.90      1.0      0.9     94      0.0      0.0   100      1.0     0.9      94     16.6    0.30     -9     -9     -9      0     -9     0.0     0.0      0    -9.00      0.0      0.0      0.0   100     0.0     0.000    -9.9    0.000      -9        0.00     321.6    314.1    0.30    89.1     138.0      93.0      83.4      56.9      59.4      45.0    0.000     0.000     0.000     0.000     0.000    0.30     0.00    0.00      0   -9.90   -9.00       29.1       30.0       30.0       28.7       26.2       23.7       20.6       16.9       15.0       15.0       15.0       15.0        0.0        0.0        0.0        0.0        0.0        0.0        0.0        0.0        0.0        0.0        0.0        0.0      0.0       0.9      14.9      16.6      18.2    384.70
    24    11  2007     2     1     360.4     0.0     40.0    0.0   40.0    0.0      0.0      0.0   -9.90      1.2      1.2    100      0.0      0.0   100      1.2     1.2     100     17.8    0.30     -9     -9     -9      0     -9     0.0     0.0      0    -9.00      0.0      0.0      0.0   100     0.0     0.000    -9.9    0.000      -9        0.00     360.4    352.9    0.30   127.9     138.0      93.0      83.4      57.2      59.4      45.0    0.128     0.000     0.000     0.128     0.127    0.30     0.14    0.15      0   -9.90   -9.00       44.8       46.0       37.1       28.7       26.2       23.7       20.6       16.9       15.0       15.0       15.0       15.0        0.2        0.2        0.0        0.0        0.0        0.0        0.0        0.0        0.0        0.0        0.0        0.0      0.0       1.1      16.4      17.8      19.1    384.70
    25    11  2007     3     1     359.6     0.0      0.0    0.0    0.0    0.0      0.0      0.0   -9.90      0.8      0.8    100      0.0      0.0   100      0.8     0.8     100     16.6    0.30     -9     -9     -9      0     -9     0.0     0.0      0    -9.00      0.0      0.0      0.0   100     0.0     0.000    -9.9    0.000      -9        0.00     359.6    352.1    0.30   102.7     138.0      93.0      83.4      56.7      59.4      45.0    0.000     0.000     0.000     0.128     0.093    0.30     0.11    0.14      0   -9.90   -9.00       33.6       34.6       34.5       33.8       32.8       32.0       23.7       16.9       15.0       15.0       15.0       15.0        0.1        0.1        0.1        0.1        0.0        0.0        0.0        0.0        0.0        0.0        0.0        0.0      0.0       0.7      14.9      16.6      18.3    384.70
    26    11  2007     4     1     358.2     0.0      0.0    0.0    0.0    0.0      0.0      0.0   -9.90      1.4      1.4    100      0.0      0.0   100      1.4     1.4     100     17.9    0.30     -9     -9     -9      0     -9     0.0     0.0      0    -9.00      0.0      0.0      0.0   100     0.0     0.000    -9.9    0.000      -9        0.00     358.2    350.7    0.30    94.3     138.0      93.0      83.4      57.4      59.4      45.0    0.000     0.000     0.000     0.128     0.078    0.30     0.09    0.13      0   -9.90   -9.00       30.3       32.0       32.0       31.9       31.9       31.8       30.3       16.9       15.0       15.0       15.0       15.0        0.1        0.1        0.1        0.1        0.0        0.0        0.0        0.0        0.0        0.0        0.0        0.0      0.0       1.3      13.1      17.9      22.6    384.70
    27    11  2007     5     1     357.5     0.0      0.0    0.0    0.0    0.0      0.0      0.0   -9.90      0.7      0.7    100      0.0      0.0   100      0.7     0.7     100      8.9    0.30     -9     -9     -9      0     -9     0.0     0.0      0    -9.00      0.0      0.0      0.0   100     0.0     0.000    -9.9    0.000      -9        0.00     357.5    350.0    0.30    92.2     138.0      93.0      83.4      56.6      59.4      45.0    0.000     0.000     0.000     0.128     0.074    0.30     0.08    0.13      0   -9.90   -9.00       29.7       31.3       31.3       31.3       31.3       31.2       31.2       18.1       15.0       15.0       15.0       15.0        0.1        0.1        0.1        0.1        0.0        0.0        0.0        0.0        0.0        0.0        0.0        0.0      0.0       0.6       3.7       8.9      14.2    384.70
    28    11  2007     6     1     356.9     0.0      0.0    0.0    0.0    0.0      0.0      0.0   -9.90      0.6      0.6    100      0.0      0.0   100      0.6     0.6     100      7.8    0.30     -9     -9     -9      0     -9     0.0     0.0      0    -9.00      0.0      0.0      0.0   100     0.0     0.000    -9.9    0.000      -9        0.00     356.9    349.4    0.30    91.3     138.0      93.0      83.4      56.5      59.4      45.0    0.000     0.000     0.000     0.128     0.072    0.30     0.08    0.12      0   -9.90   -9.00       29.1       31.1       31.1       31.1       31.1       31.1       31.1       18.9       15.0       15.0       15.0       15.0        0.1        0.1        0.1        0.1        0.0        0.0        0.0        0.0        0.0        0.0        0.0        0.0      0.0       0.5       2.4       7.8      13.1    384.70
    29    11  2007     7     1     369.8    15.0      0.0    0.0   13.4    1.6      0.0      0.0   -9.90      0.6      0.6    100      0.0      0.0   100      0.6     0.6     100      7.3    0.30     -9     -9     -9      0     -9     0.0     0.0      0    -9.00      0.0      0.0      0.0   100     0.0     0.000    -9.9    0.000      -9        0.00     369.8    362.3    0.30   104.0     138.0      93.0      83.4      56.5      59.4      45.0    0.000     0.000     0.000     0.128     0.071    0.30     0.08    0.11      0   -9.90   -9.00       42.0       31.0       31.0       31.0       31.0       31.0       31.0       19.1       15.0       15.0       15.0       15.0        0.1        0.1        0.1        0.1        0.0        0.0        0.0        0.0        0.0        0.0        0.0        0.0     15.0       0.5       5.5       7.3       9.0    384.70
    30    11  2007     8     1     369.8     0.4      0.0    0.0    0.4    0.0      0.0      0.0   -9.90      0.4      0.4    100      0.0      0.0   100      0.4     0.4     100      7.3    0.31     -9     -9     -9      0     -9     0.0     0.0      0    -9.00      0.0      0.0      0.0   100     0.0     0.000    -9.9    0.000      -9        0.00     369.8    362.3    0.31   103.2     144.6      97.4      87.4      59.0      62.2      47.1    0.000     0.000     0.000     0.128     0.063    0.31     0.07    0.10      0   -9.90   -9.00       33.4       33.2       32.2       31.7       31.6       31.4       31.2       21.4       15.0       15.0       15.0       15.0        0.1        0.1        0.1        0.1        0.0        0.0        0.0        0.0        0.0        0.0        0.0        0.0      0.4       0.4       5.0       7.3       9.7    384.70
     1    12  2007     9     1     369.8     0.4      0.0    0.0    0.4    0.0      0.0      0.0   -9.90      0.4      0.4    100      0.0      0.0   100      0.4     0.4     100      9.8    0.35     -9     -9     -9      0     -9     0.0     0.0      0    -9.00      0.0      0.0      0.0   100     0.0     0.000    -9.9    0.000      -9        0.00     369.8    362.3    0.35   109.3     159.5     107.5      96.4      65.1      68.6      52.0    0.000     0.000     0.000     0.128     0.061    0.35     0.06    0.09      0   -9.90   -9.00       31.2       31.7       31.6       31.6       31.5       31.4       31.3       24.2       15.0       15.0       15.0       15.0        0.1        0.1        0.1        0.1        0.1        0.0        0.0        0.0        0.0        0.0        0.0        0.0      0.4       0.4       5.0       9.8      14.5    384.70
     2    12  2007    10     1     369.4     0.2      0.0    0.0    0.2    0.0      0.0      0.0   -9.90      0.6      0.5     99      0.0      0.0   100      0.6     0.5      99     11.3    0.38     -9     -9     -9      0     -9     0.0     0.0      0    -9.00      0.0      0.0      0.0   100     0.0     0.000    -9.9    0.000      -9        0.00     369.4    361.9    0.38   116.7     172.8     116.4     104.4      70.7      74.4      56.3    0.000     0.000     0.000     0.128     0.062    0.38     0.06    0.08      0   -9.90   -9.00       30.7       31.2       31.2       31.2       31.2       31.2       31.1       25.7       15.0       15.0       15.0       15.0        0.1        0.1        0.1        0.1        0.0        0.0        0.0        0.0        0.0        0.0        0.0        0.0      0.2       0.5       6.0      11.3      16.6    384.70
     3    12  2007    11     1     377.3     9.4      0.0    0.0    8.8    0.6      0.0      0.0   -9.90      0.9      0.9    100      0.0      0.0   100      0.9     0.9     100     12.6    0.40     -9     -9     -9      0     -9     0.0     0.0      0    -9.00      0.0      0.0      0.0   100     0.0     0.000    -9.9    0.000      -9        0.00     377.3    369.8    0.40   132.4     185.0     124.7     111.8      76.2      79.6      60.3    0.000     0.000     0.000     0.128     0.065    0.40     0.06    0.08      0   -9.90   -9.00       38.6       31.1       31.1       31.0       31.0       31.0       31.0       26.2       15.0       15.0       15.0       15.0        0.1        0.1        0.1        0.1        0.0        0.0        0.0        0.0        0.0        0.0        0.0        0.0      9.4       0.8       8.6      12.6      16.5    384.70
     4    12  2007    12     1     376.6     0.4      0.0    0.0    0.4    0.0      0.0      0.0   -9.90      1.1      1.1     98      0.0      0.0   100      1.1     1.1      98      9.5    0.43     -9     -9     -9      0     -9     0.0     0.0      0    -9.00      0.0      0.0      0.0   100     0.0     0.000    -9.9    0.000      -9        0.00     376.6    369.1    0.43   136.4     196.4     132.4     118.7      81.2      84.5      64.0    0.000     0.000     0.000     0.128     0.063    0.43     0.05    0.07      0   -9.90   -9.00       32.0       32.6       31.8       31.6       31.4       31.3       31.2       27.9       15.0       15.0       15.0       15.0        0.0        0.1        0.1        0.1        0.1        0.0        0.0        0.0        0.0        0.0        0.0        0.0      0.4       1.0       6.0       9.5      13.0    384.70
     5    12  2007    13     1     375.1     0.0      0.0    0.0    0.0    0.0      0.0      0.0   -9.90      2.0      1.5     76      0.0      0.0   100      2.0     1.5      76     10.2    0.45     -9     -9     -9      0     -9     0.0     0.0      0    -9.00      0.0      0.0      0.0   100     0.0     0.000    -9.9    0.000      -9        0.00     375.1    367.6    0.45   139.7     207.2     139.6     125.2      87.1      89.2      67.6    0.000     0.000     0.000     0.128     0.062    0.45     0.05    0.07      0   -9.90   -9.00       29.8       31.5       31.4       31.3       31.3       31.2       31.2       29.6       15.0       15.0       15.0       15.0        0.0        0.0        0.0        0.1        0.0        0.0        0.0        0.1        0.0        0.0        0.0        0.0      0.0       1.8       7.9      10.2      12.5    384.70
     6    12  2007    14     2     374.5     0.0      0.0    0.0    0.0    0.0      0.0      0.0   -9.90      0.8      0.5     67      0.1      0.1   100      0.9     0.6      70      9.3    0.47     -9      0      0      0      0     6.8     6.8     23     0.12      0.1      0.1      0.1   100    15.6     0.015    -9.9    0.000     100        0.00     374.5    367.0    0.47   145.1     217.5     146.6     119.8      89.5      86.4      70.9    0.000     0.000     0.000     0.128     0.063    0.47     0.05    0.07      0   -9.90   -9.00       29.2       31.1       31.1       31.1       31.1       31.1       31.1       30.5       15.0       15.0       15.0       15.0        0.0        0.0        0.0        0.0        0.0        0.0        0.0        0.1        0.0        0.0        0.0        0.0      0.0       0.8       5.4       9.3      13.1    384.70
     7    12  2007    15     2     374.0     0.2      0.0    0.0    0.2    0.0      0.0      0.0   -9.90      0.7      0.7     98      0.1      0.1   100      0.8     0.7      98     10.5    0.49     -9      0      0      0      0     6.8     6.8     13     0.12      0.1      0.1      0.1   100    15.6     0.032    -9.9    0.000     100        0.00     374.0    366.5    0.49   151.0     227.4     153.2     125.0      93.4      90.1      74.1    0.000     0.000     0.000     0.128     0.065    0.49     0.04    0.07      0   -9.90   -9.00       28.6       31.0       31.0       31.0       31.0       31.0       31.0       30.8       15.0       15.0       15.0       15.0        0.0        0.0        0.0        0.0        0.0        0.0        0.0        0.1        0.0        0.0        0.0        0.0      0.2       0.7       4.6      10.5      16.4    384.70
     8    12  2007    16     2     418.1     5.2     40.0    0.0   45.2    0.0      0.0      0.0   -9.90      1.0      1.0    100      0.1      0.1   100      1.1     1.1     100     10.6    0.51     -9      0      0      0      0     6.9     6.9     12     0.12      0.1      0.1      0.1   100    15.6     0.048    -9.9    0.000     100        0.00     418.1    410.6    0.51   201.4     236.9     159.6     131.1      97.9      94.5      77.2    0.128     0.000     0.000     0.256     0.196    0.51     0.13    0.14      0   -9.90   -9.00       44.9       46.0       43.8       31.0       31.0       31.0       31.0       30.9       15.0       15.0       15.0       15.0        0.2        0.2        0.1        0.1        0.0        0.0        0.0        0.1        0.0        0.0        0.0        0.0      5.2       1.0       5.9      10.6      15.3    384.70
     9    12  2007    17     2     427.8    11.6      0.0    0.0   10.4    1.2      0.0      0.0   -9.90      0.6      0.6    100      0.1      0.1   100      0.6     0.6     100     10.1    0.53     -9      0      0      0      0     6.9     6.9     16     0.12      0.1      0.1      0.1   100    15.6     0.065    -9.9    0.000     100        0.00     427.8    420.3    0.53   192.6     246.1     165.8     135.0     100.9      97.4      80.2    0.000     0.000     0.000     0.256     0.168    0.53     0.11    0.13      0   -9.90   -9.00       44.1       34.6       34.5       34.4       33.5       32.9       32.5       32.1       28.0       15.0       15.0       15.0        0.2        0.1        0.1        0.1        0.1        0.1        0.1        0.1        0.1        0.0        0.0        0.0     11.6       0.6       7.0      10.1      13.2    384.70
    10    12  2007    18     2     427.1     0.4      0.0    0.0    0.4    0.0      0.0      0.0   -9.90      1.0      1.0     98      0.1      0.1   100      1.1     1.1      98     12.0    0.55     -9      0      0      0      0     6.9     6.9      6     0.13      0.1      0.1      0.1   100    15.6     0.083    -9.9    0.000     100        0.00     427.1    419.6    0.55   182.6     255.0     171.9     141.1     105.4     101.7      83.2    0.000     0.000     0.000     0.256     0.151    0.55     0.09    0.13      0   -9.90   -9.00       33.2       34.2       32.9       32.5       32.3       32.2       32.0       31.9       31.7       22.6       15.0       15.0        0.1        0.1        0.1        0.1        0.1        0.1        0.1        0.1        0.1        0.0        0.0        0.0      0.4       1.0       7.3      12.0      16.6    384.70
    11    12  2007    19     2     433.5     7.2      0.0    0.0    6.9    0.3      0.0      0.0   -9.90      0.5      0.5    100      0.0      0.0   100      0.5     0.5     100      8.4    0.57     -9      0      0      0      0     7.0     7.0     32     0.13      0.0      0.0      0.0   100    15.6     0.097    -9.9    0.000     100        0.00     433.5    426.0    0.57   188.0     263.7     177.7     144.3     107.9     104.1      86.0    0.000     0.000     0.000     0.256     0.142    0.57     0.08    0.12      0   -9.90   -9.00       38.0       31.9       31.8       31.7       31.6       31.5       31.5       31.4       31.4       28.7       15.0       15.0        0.1        0.1        0.1        0.1        0.1        0.1        0.1        0.1        0.1        0.1        0.0        0.0      7.2       0.5       4.8       8.4      12.1    384.70
    12    12  2007    20     2     450.7    23.4      0.0    0.0   17.8    5.6      0.0      0.0   -9.90      0.6      0.6    100      0.0      0.0   100      0.6     0.6     100      8.2    0.59     -9      0      0      0      0     7.0     7.0     35     0.13      0.0      0.0      0.0   100    15.6     0.109    -9.9    0.000     100        0.00     450.7    443.2    0.59   206.4     272.2     183.4     149.3     111.6     107.7      88.7    0.000     0.000     0.000     0.256     0.135    0.59     0.08    0.10      0   -9.90   -9.00       45.4       37.4       31.9       31.6       31.4       31.4       31.3       31.3       31.2       31.2       16.1       15.0        0.1        0.1        0.1        0.1        0.1        0.1        0.1        0.1        0.1        0.1        0.0        0.0     23.4       0.6       6.3       8.2      10.0    384.70
    13    12  2007    21     2     449.6     0.0      0.0    0.0    0.0    0.0      0.0      0.0   -9.90      1.0      1.0    100      0.1      0.1   100      1.1     1.1     100      9.2    0.61     -9      0      0      0      0     7.1     7.1     24     0.13      0.1      0.1      0.1   100    15.6     0.125    -9.9    0.000     100        0.00     449.6    442.1    0.61   200.9     280.4     189.0     155.2     115.9     111.8      91.4    0.000     0.000     0.000     0.256     0.124    0.61     0.07    0.10      0   -9.90   -9.00       33.4       34.5       33.4       32.5       32.1       31.8       31.7       31.5       31.4       31.3       21.9       15.0        0.1        0.1        0.1        0.1        0.1        0.1        0.1        0.1        0.1        0.1        0.1        0.0      0.0       1.0       5.5       9.2      12.8    384.70
    14    12  2007    22     2     448.8     0.4      0.0    0.0    0.4    0.0      0.0      0.0   -9.90      1.3      1.2     97      0.1      0.1   100      1.3     1.3      97      5.6    0.63     -9      0      0      0      0     7.1     7.1     70     0.13      0.1      0.1      0.1   100    15.6     0.131    -9.9    0.000     100        0.00     448.8    441.3    0.63   197.8     288.5     194.4     160.8     120.0     115.7      94.1    0.000     0.000     0.000     0.256     0.114    0.63     0.06    0.09      0   -9.90   -9.00       30.4       32.0       31.8       31.8       31.7       31.6       31.5       31.4       31.4       31.3       27.4       15.0        0.1        0.1        0.1        0.1        0.1        0.1        0.1        0.1        0.1        0.1        0.1        0.0      0.4       1.3       1.6       5.6       9.6    384.70
    15    12  2007    23     2     450.9     2.8      0.0    0.0    2.8    0.0      0.0      0.0   -9.90      0.7      0.7    100      0.0      0.0   100      0.7     0.7     100      0.5    0.64     -9      0      0      0      0     7.1     7.1     99     0.13      0.0      0.0      0.0   100    15.6     0.131    -9.9    0.000     100        0.00     450.9    443.4    0.64   202.5     296.4     199.8     162.9     121.8     117.5      96.7    0.000     0.000     0.000     0.256     0.111    0.64     0.06    0.09      0   -9.90   -9.00       32.5       31.3       31.2       31.2       31.2       31.2       31.2       31.2       31.2       31.2       30.1       15.0        0.1        0.1        0.1        0.1        0.1        0.1        0.1        0.1        0.1        0.1        0.1        0.0      2.8       0.7      -2.4       0.5       3.4    384.70
    16    12  2007    24     2     454.9     4.4      0.0    0.0    4.4    0.0      0.0      0.0   -9.90      0.3      0.3    100      0.0      0.0   100      0.3     0.3     100      0.5    0.66     -9      0      0      0      0     7.2     7.2     99     0.13      0.0      0.0      0.0   100    15.6     0.131    -9.9    0.000     100        0.00     454.9    447.3    0.66   210.5     304.2     205.0     165.7     123.9     119.6      99.2    0.000     0.000     0.000     0.256     0.111    0.66     0.06    0.08      0   -9.90   -9.00       35.5       31.4       31.2       31.1       31.1       31.1       31.1       31.1       31.1       31.1       31.1       15.2        0.1        0.1        0.1        0.1        0.1        0.1        0.1        0.1        0.1        0.1        0.1        0.0      4.4       0.3      -2.3       0.5       3.3    384.70
    17    12  2007    25     2     483.6    52.4      0.0    0.0   29.0   23.4      0.0      0.0   -9.90      0.4      0.4    100      0.0      0.0   100      0.4     0.4     100      5.8    0.68     -9      0      0      0      0     7.2     7.2     67     0.13      0.0      0.0      0.0   100    15.6     0.138    -9.9    0.000     100        0.00     483.6    475.5    0.68   242.4     311.8     210.1     170.2     127.3     122.9     101.7    0.000     0.000     0.000     0.256     0.110    0.68     0.05    0.07      0   -9.90   -9.00       45.6       46.0       32.9       31.3       31.2       31.2       31.1       31.1       31.1       31.1       31.1       16.1        0.0        0.1        0.1        0.1        0.1        0.1        0.1        0.1        0.1        0.1        0.1        0.0     52.4       0.4       2.9       5.8       8.7    384.70
    18    12  2007    26     2     483.4     0.2      0.0    0.0    0.2    0.0      0.0      0.0   -9.90      0.4      0.4     99      0.0      0.0   100      0.4     0.4      99      4.8    0.69     -9      0      0      0      0     7.3     7.3     79     0.13      0.0      0.0      0.0   100    15.6     0.142    -9.9    0.000     100        0.00     483.4    472.4    0.69   232.0     319.3     215.2     174.3     130.4     125.8     104.1    0.000     0.000     0.000     0.256     0.097    0.69     0.05    0.07      0   -9.90   -9.00       34.1       34.6       34.6       33.5       32.7       32.3       32.0       31.8       31.6       31.5       31.4       22.0        0.0        0.0        0.0        0.0        0.1        0.1        0.1        0.1        0.1        0.1        0.1        0.1      0.2       0.4       0.6       4.8       9.0    384.70
    19    12  2007    27     2     489.8     7.2      0.0    0.0    6.9    0.3      0.0      0.0   -9.90      0.4      0.4    100      0.0      0.0   100      0.4     0.4     100      6.0    0.71     -9      0      0      0      0     7.3     7.3     64     0.13      0.0      0.0      0.0   100    15.6     0.149    -9.9    0.000     100        0.00     489.8    476.0    0.71   232.9     326.6     220.1     178.3     133.4     128.7     106.5    0.000     0.000     0.000     0.256     0.089    0.71     0.04    0.06      0   -9.90   -9.00       38.4       32.0       32.0       32.0       31.9       31.8       31.7       31.6       31.5       31.4       31.4       27.7        0.0        0.0        0.0        0.0        0.0        0.1        0.1        0.1        0.1        0.1        0.1        0.1      7.2       0.4       3.1       6.0       9.0    384.70
    20    12  2007    28     2     488.9     0.0      0.0    0.0    0.0    0.0      0.5      0.0   -9.90      0.4      0.4    100      0.0      0.0   100      0.4     0.4     100      7.1    0.73     -9      0      0      0      0     7.4     7.4     49     0.13      0.0      0.0      0.0   100    15.6     0.160    -9.9    0.000     100        0.00     488.9    473.3    0.73   231.3     333.9     225.0     182.3     136.3     131.6     108.9    0.000     0.003     0.000     0.253     0.084    0.73     0.04    0.06      0   -9.90   -9.00       32.6       32.7       31.9       31.6       31.5       31.4       31.4       31.3       31.3       31.3       31.2       31.1        0.0        0.0        0.0        0.0        0.0        0.0        0.0        0.1        0.1        0.1        0.1        0.1      0.0       0.4       3.1       7.1      11.2    384.70
    21    12  2007    29     2     484.5     0.4      0.0    0.0    0.4    0.0      4.5      0.0   -9.90      0.3      0.3    100      0.0      0.0   100      0.3     0.3     100      6.5    0.74     -9      0      0      0      0     7.4     7.4     57     0.13      0.0      0.0      0.0   100    15.6     0.169    -9.9    0.000     100        0.00     484.5    468.9    0.74   232.5     341.0     229.8     185.7     138.9     134.1     111.2    0.000     0.015     0.000     0.239     0.081    0.74     0.04    0.05      0   -9.90   -9.00       31.3       31.5       31.5       31.4       31.4       31.3       31.2       31.2       31.2       31.2       31.2       31.1        0.0        0.0        0.0        0.0        0.0        0.0        0.0        0.0        0.1        0.1        0.1        0.1      0.4       0.3       1.4       6.5      11.7    384.70
    22    12  2007    30     2     482.0     0.2      0.0    0.0    0.2    0.0      2.4      0.0   -9.90      0.3      0.3    100      0.0      0.0   100      0.3     0.3     100      6.3    0.76     -9      0      0      0      0     7.4     7.4     61     0.13      0.0      0.0      0.0   100    15.6     0.177    -9.9    0.000     100        0.00     482.0    466.4    0.76   235.4     348.1     234.6     189.6     141.8     136.9     113.5    0.000     0.008     0.000     0.231     0.081    0.76     0.04    0.05      0   -9.90   -9.00       31.0       31.1       31.1       31.1       31.1       31.1       31.1       31.1       31.1       31.1       31.1       31.1        0.0        0.0        0.0        0.0        0.0        0.0        0.0        0.0        0.0        0.1        0.1        0.1      0.2       0.3       0.4       6.3      12.1    384.70
    23    12  2007    31     2     517.3     0.8     36.0    0.0   36.8    0.0      1.0      0.0   -9.90      0.4      0.4    100      0.0      0.0   100      0.4     0.4     100      6.6    0.77     -9      0      0      0      0     7.5     7.5     56     0.13      0.0      0.0      0.0   100    15.6     0.186    -9.9    0.000     100        0.00     517.3    501.8    0.77   275.8     355.0     239.2     193.8     144.9     139.9     115.8    0.115     0.003     0.000     0.342     0.198    0.77     0.09    0.10      0   -9.90   -9.00       45.6       46.0       37.9       31.0       31.0       31.0       31.0       31.0       31.0       31.0       31.0       31.0        0.2        0.2        0.1        0.0        0.0        0.0        0.0        0.0        0.0        0.1        0.1        0.1      0.8       0.4       3.1       6.6      10.2    384.70
    24    12  2007    32     2     509.8     6.4      0.0    0.0    6.2    0.2     13.3      0.0   -9.90      0.4      0.4    100      0.0      0.0   100      0.4     0.4     100      8.8    0.79     -9      0      0      0      0     7.5     7.5     28     0.14      0.0      0.0      0.0   100    15.6     0.201    -9.9    0.000     100        0.00     509.8    494.1    0.79   268.1     361.8     243.9     197.5     147.7     142.6     118.0    0.000     0.022     0.000     0.320     0.186    0.79     0.08    0.11      0   -9.90   -9.00       39.0       34.6       34.6       33.9       33.1       32.8       32.2       32.0       31.9       31.6       31.6       31.4        0.1        0.1        0.1        0.1        0.1        0.1        0.0        0.0        0.0        0.1        0.1        0.1      6.4       0.4       6.9       8.8      10.7    384.70
    25    12  2007    33     2     501.2     6.6      0.0    0.0    6.4    0.2     14.6      0.0   -9.90      0.4      0.4    100      0.0      0.0   100      0.4     0.4     100      9.1    0.80     -9      0      0      0      0     7.6     7.6     24     0.14      0.0      0.0      0.0   100    15.6     0.218    -9.9    0.000     100        0.00     501.2    485.5    0.80   265.0     368.6     248.4     201.2     150.5     145.3     120.2    0.000     0.020     0.000     0.300     0.176    0.80     0.07    0.10      0   -9.90   -9.00       39.1       33.1       32.4       32.2       32.1       32.0       31.9       31.7       31.6       31.6       31.5       31.4        0.1        0.1        0.1        0.1        0.1        0.1        0.0        0.0        0.0        0.1        0.1        0.1      6.6       0.4       6.6       9.1      11.7    384.70
    26    12  2007    34     2     497.3     6.4      0.0    0.0    6.2    0.2      9.7      0.0   -9.90      0.4      0.4    100      0.0      0.0   100      0.4     0.4     100      8.2    0.82     -9      0      0      0      0     7.6     7.6     35     0.14      0.0      0.0      0.0   100    15.6     0.231    -9.9    0.000     100        0.00     497.3    481.6    0.82   267.2     375.3     252.9     204.9     153.2     147.9     122.4    0.000     0.014     0.000     0.286     0.168    0.82     0.07    0.10      0   -9.90   -9.00       38.9       33.1       32.2       31.8       31.7       31.6       31.5       31.4       31.4       31.3       31.3       31.3        0.1        0.1        0.1        0.1        0.1        0.1        0.1        0.0        0.0        0.1        0.1        0.1      6.4       0.4       4.8       8.2      11.5    384.70
    27    12  2007    35     2     489.9     0.0      0.0    0.0    0.0    0.0      6.9      0.0   -9.90      0.5      0.5    100      0.0      0.0   100      0.5     0.5     100      6.0    0.83     -9      0      0      0      0     7.7     7.7     65     0.14      0.0      0.0      0.0   100    15.6     0.239    -9.9    0.000     100        0.00     489.9    474.3    0.83   265.0     381.9     257.4     208.9     156.2     150.8     124.5    0.000     0.010     0.000     0.276     0.162    0.83     0.07    0.10      0   -9.90   -9.00       32.6       33.1       32.1       31.8       31.6       31.5       31.4       31.3       31.3       31.3       31.2       31.2        0.1        0.1        0.1        0.1        0.1        0.1        0.1        0.1        0.0        0.1        0.1        0.1      0.0       0.5       3.8       6.0       8.2    384.70
    28    12  2007    36     2     484.7     0.0      0.0    0.0    0.0    0.0      4.8      0.0   -9.90      0.4      0.4    100      0.0      0.0   100      0.4     0.4     100      8.0    0.84     -9      0      0      0      0     7.7     7.7     38     0.14      0.0      0.0      0.0   100    15.6     0.252    -9.9    0.000     100        0.00     484.7    469.1    0.84   264.7     388.4     261.7     212.0     158.6     153.1     126.7    0.000     0.008     0.000     0.268     0.157    0.84     0.06    0.09      0   -9.90   -9.00       31.0       31.6       31.5       31.4       31.4       31.3       31.3       31.2       31.2       31.2       31.2       31.1        0.1        0.1        0.1        0.1        0.1        0.1        0.1        0.1        0.0        0.1        0.1        0.1      0.0       0.4       5.5       8.0      10.4    384.70
    29    12  2007    37     2     481.7     0.0      0.0    0.0    0.0    0.0      2.6      0.0   -9.90      0.4      0.4    100      0.0      0.0   100      0.4     0.4     100      7.5    0.86     -9      0      0      0      0     7.7     7.7     45     0.14      0.0      0.0      0.0   100    15.6     0.264    -9.9    0.000     100        0.00     481.7    466.1    0.86   266.7     394.8     266.1     215.5     161.2     155.6     128.8    0.000     0.004     0.000     0.264     0.156    0.86     0.06    0.09      0   -9.90   -9.00       30.6       31.2       31.2       31.1       31.1       31.1       31.1       31.1       31.1       31.1       31.1       31.1        0.1        0.1        0.1        0.1        0.1        0.1        0.1        0.1        0.0        0.1        0.1        0.1      0.0       0.4       3.4       7.5      11.5    384.70
    30    12  2007    38     2     480.2     0.0      0.0    0.0    0.0    0.0      1.1      0.0   -9.90      0.4      0.4    100      0.0      0.0   100      0.4     0.4     100      7.6    0.87     -9      0      0      0      0     7.8     7.8     43     0.14      0.0      0.0      0.0   100    15.6     0.277    -9.9    0.000     100        0.00     480.2    464.7    0.87   269.9     401.2     270.4     219.0     163.8     158.1     130.8    0.000     0.002     0.000     0.262     0.156    0.87     0.06    0.09      0   -9.90   -9.00       30.2       31.1       31.0       31.0       31.0       31.0       31.0       31.0       31.0       31.0       31.0       31.0        0.1        0.1        0.1        0.1        0.1        0.1        0.1        0.1        0.0        0.1        0.1        0.1      0.0       0.4       4.8       7.6      10.4    384.70
    31    12  2007    39     2     479.3     0.0      0.0    0.0    0.0    0.0      0.4      0.0   -9.90      0.5      0.5    100      0.1      0.1   100      0.5     0.5     100      9.3    0.89     -9      0      0      0      0     7.8     7.8     22     0.14      0.1      0.1      0.1   100    15.6     0.294    -9.9    0.000     100        0.00     479.3    463.8    0.89   273.4     407.5     274.6     223.0     166.7     160.9     132.9    0.000     0.001     0.000     0.261     0.158    0.89     0.06    0.09      0   -9.90   -9.00       29.6       31.0       31.0       31.0       31.0       31.0       31.0       31.0       31.0       31.0       31.0       31.0        0.1        0.1        0.1        0.1        0.1        0.1        0.1        0.1        0.0        0.1        0.1        0.1      0.0       0.5       6.8       9.3      11.8    384.70
     1     1  2008    40     2     484.6     6.8      0.0    0.0    6.6    0.2      0.1      0.0   -9.90      1.1      1.1    100      0.1      0.1   100      1.2     1.2     100      5.6    0.90     -9      0      0      0      0     7.9     7.9     70     0.14      0.1      0.1      0.1   100    15.6     0.301    -9.9    0.000     100        0.00     484.6    469.1    0.90   283.0     413.8     278.9     230.1     171.8     165.7     134.9    0.000     0.000     0.000     0.261     0.160    0.90     0.06    0.09      0   -9.90   -9.00       35.1       31.0       31.0       31.0       31.0       31.0       31.0       31.0       31.0       31.0       31.0       31.0        0.1        0.1        0.1        0.1        0.1        0.1        0.1        0.1        0.0        0.1        0.1        0.1      6.8       1.2       2.9       5.6       8.3    384.70
     2     1  2008    41     2     535.4     0.4     52.0    0.0   52.4    0.0      0.8      0.0   -9.90      0.8      0.8    100      0.0      0.0   100      0.8     0.8     100      5.2    0.91     -9      0      0      0      0     7.9     7.9     75     0.14      0.0      0.0      0.0   100    15.6     0.306    -9.9    0.000     100        0.00     535.4    519.9    0.91   337.8     420.0     283.0     231.4     172.9     166.8     137.0    0.166     0.002     0.000     0.426     0.326    0.91     0.12    0.14      0   -9.90   -9.00       45.2       46.0       46.0       41.0       31.2       31.1       31.1       31.1       31.0       31.0       31.0       31.0        0.3        0.2        0.2        0.1        0.1        0.1        0.1        0.1        0.1        0.1        0.1        0.1      0.4       0.8       2.5       5.2       7.8    384.70
     3     1  2008    42     2     511.9     0.0      0.0    0.0    0.0    0.0     23.2      0.0   -9.90      0.4      0.4    100      0.0      0.0   100      0.4     0.4     100      4.0    0.93     -9      0      0      0      0     8.0     8.0     85     0.14      0.0      0.0      0.0   100    15.6     0.310    -9.9    0.000     100        0.00     511.9    496.0    0.93   312.7     426.1     287.2     232.6     174.0     167.9     138.9    0.000     0.021     0.000     0.405     0.297    0.93     0.11    0.15      0   -9.90   -9.00       34.1       34.6       34.6       34.6       34.3       33.6       33.1       32.6       32.3       32.0       31.9       31.7        0.2        0.2        0.1        0.1        0.1        0.1        0.1        0.1        0.1        0.1        0.1        0.1      0.0       0.4      -0.6       4.0       8.7    384.70
     4     1  2008    43     2     492.5     0.2      0.0    0.0    0.2    0.0     19.0      0.0   -9.90      0.6      0.6     99      0.1      0.1   100      0.6     0.6      99      8.6    0.94     -9      0      0      0      0     8.0     8.0     30     0.14      0.1      0.1      0.1   100    15.6     0.325    -9.9    0.000     100        0.00     492.5    476.7    0.94   299.4     432.2     291.3     237.0     177.2     171.0     140.9    0.000     0.019     0.000     0.386     0.276    0.94     0.10    0.14      0   -9.90   -9.00       31.2       32.0       32.0       32.0       32.0       32.0       31.9       31.8       31.7       31.7       31.6       31.6        0.1        0.1        0.1        0.1        0.1        0.1        0.1        0.1        0.1        0.1        0.1        0.1      0.2       0.6       5.3       8.6      11.9    384.70
     5     1  2008    44     2     483.7     0.0      0.0    0.0    0.0    0.0      8.1      0.0   -9.90      0.7      0.6     88      0.1      0.1   100      0.8     0.7      90     13.3    0.95     -9      0      0      0      0     8.1     8.1      3     0.14      0.1      0.1      0.1   100    15.6     0.347    -9.9    0.000     100        0.00     483.7    468.1    0.95   297.1     438.2     295.3     240.9     180.0     173.7     142.9    0.000     0.012     0.000     0.375     0.267    0.95     0.10    0.14      0   -9.90   -9.00       30.4       31.3       31.3       31.3       31.3       31.3       31.3       31.3       31.3       31.2       31.2       31.2        0.1        0.1        0.1        0.1        0.1        0.1        0.1        0.1        0.1        0.1        0.1        0.1      0.0       0.7      11.0      13.3      15.6    384.70
     6     1  2008    45     2     482.0     1.6      0.0    0.0    1.6    0.0      2.7      0.0   -9.90      0.6      0.6    100      0.1      0.1   100      0.7     0.7     100     12.4    0.97     -9      0      0      0      0     8.1     8.1      5     0.15      0.1      0.1      0.1   100    15.6     0.369    -9.9    0.000     100        0.00     482.0    466.4    0.97   300.4     444.2     299.3     243.6     182.1     175.7     144.8    0.000     0.005     0.000     0.370     0.265    0.97     0.09    0.14      0   -9.90   -9.00       31.3       31.1       31.1       31.1       31.1       31.1       31.1       31.1       31.1       31.1       31.1       31.1        0.1        0.1        0.1        0.1        0.1        0.1        0.1        0.1        0.1        0.1        0.1        0.1      1.6       0.6       8.9      12.4      16.0    384.70
     7     1  2008    46     2     480.5     0.0      0.0    0.0    0.0    0.0      0.9      0.0   -9.90      0.5      0.5    100      0.1      0.1   100      0.5     0.5     100     12.4    0.98     -9      0      0      0      0     8.1     8.1      5     0.15      0.1      0.1      0.1   100    15.6     0.390    -9.9    0.000     100        0.00     480.5    465.0    0.98   303.2     450.1     303.3     246.3     184.1     177.7     146.8    0.000     0.002     0.000     0.368     0.265    0.98     0.09    0.14      0   -9.90   -9.00       30.6       31.1       31.0       31.0       31.0       31.0       31.0       31.0       31.0       31.0       31.0       31.0        0.1        0.1        0.1        0.1        0.1        0.1        0.1        0.1        0.1        0.1        0.1        0.1      0.0       0.5       7.8      12.4      17.0    384.70
     8     1  2008    47     2     484.0     4.4      0.0    0.0    4.4    0.0      0.3      0.0   -9.90      0.5      0.5    100      0.1      0.1   100      0.5     0.5     100     11.7    0.99     -9      0      0      0      0     8.2     8.2      7     0.15      0.1      0.1      0.1   100    15.6     0.412    -9.9    0.000     100        0.00     484.0    468.5    0.99   310.8     456.0     307.3     249.5     186.5     180.0     148.7    0.000     0.001     0.000     0.367     0.267    0.99     0.09    0.13      0   -9.90   -9.00       34.4       31.0       31.0       31.0       31.0       31.0       31.0       31.0       31.0       31.0       31.0       31.0        0.1        0.1        0.1        0.1        0.1        0.1        0.1        0.1        0.1        0.1        0.1        0.1      4.4       0.5       9.8      11.7      13.5    384.70
     9     1  2008    48     2     483.0     0.2      0.0    0.0    0.2    0.0      0.8      0.0   -9.90      0.5      0.5     99      0.1      0.1   100      0.5     0.5      99     10.2    1.00     -9      0      0      0      0     8.2     8.2     15     0.15      0.1      0.1      0.1   100    15.6     0.431    -9.9    0.000     100        0.00     483.0    467.4    1.00   313.5     461.8     311.2     252.7     188.9     182.3     150.6    0.000     0.002     0.000     0.366     0.267    1.00     0.09    0.13      0   -9.90   -9.00       31.4       31.7       31.4       31.3       31.2       31.1       31.1       31.1       31.1       31.0       31.0       31.0        0.1        0.1        0.1        0.1        0.1        0.1        0.1        0.1        0.1        0.1        0.1        0.1      0.2       0.5       7.4      10.2      13.0    384.70
    10     1  2008    49     2     481.4     0.0      0.0    0.0    0.0    0.0      1.1      0.0   -9.90      0.5      0.4     89      0.1      0.1   100      0.5     0.5      90     11.4    1.02     -9      0      0      0      0     8.3     8.3      8     0.15      0.1      0.1      0.1   100    15.6     0.452    -9.9    0.000     100        0.00     481.4    465.8    1.02   315.7     467.5     315.1     255.8     191.3     184.6     152.5    0.000     0.002     0.000     0.363     0.266    1.02     0.09    0.13      0   -9.90   -9.00       30.6       31.2       31.2       31.1       31.1       31.1       31.1       31.1       31.1       31.0       31.0       31.0        0.1        0.1        0.1        0.1        0.1        0.1        0.1        0.1        0.1        0.1        0.1        0.1      0.0       0.5       7.9      11.4      14.9    384.70
    11     1  2008    50     2     480.3     0.2      0.0    0.0    0.2    0.0      0.7      0.0   -9.90      0.5      0.5     98      0.1      0.1   100      0.5     0.5      98     10.4    1.03     -9      0      0      0      0     8.3     8.3     14     0.15      0.1      0.1      0.1   100    15.6     0.473    -9.9    0.000     100        0.00     480.3    464.8    1.03   318.6     473.3     318.9     258.9     193.6     186.9     154.3    0.000     0.002     0.000     0.362     0.267    1.03     0.09    0.13      0   -9.90   -9.00       30.3       31.1       31.0       31.0       31.0       31.0       31.0       31.0       31.0       31.0       31.0       31.0        0.1        0.1        0.1        0.1        0.1        0.1        0.1        0.1        0.1        0.1        0.1        0.1      0.2       0.5       6.3      10.4      14.5    384.70
    12     1  2008    51     2     523.1     0.0     44.0    0.0   44.0    0.0      0.3      0.0   -9.90      0.8      0.8    100      0.1      0.1   100      0.9     0.9     100     13.6    1.04     -9      0      0      0      0     8.4     8.4      3     0.15      0.1      0.1      0.1   100    15.6     0.495    -9.9    0.000     100        0.00     523.1    507.6    1.04   365.3     479.0     322.8     263.9     197.2     190.3     156.2    0.141     0.001     0.000     0.502     0.409    1.04     0.13    0.16      0   -9.90   -9.00       45.1       46.0       44.3       31.0       31.0       31.0       31.0       31.0       31.0       31.0       31.0       31.0        0.3        0.3        0.2        0.1        0.1        0.1        0.1        0.1        0.1        0.1        0.1        0.1      0.0       0.8      11.5      13.6      15.7    384.70
    13     1  2008    52     2     507.7     1.8      0.0    0.0    1.8    0.0     16.4      0.0   -9.90      0.7      0.7    100      0.1      0.1   100      0.8     0.8     100     11.6    1.05     -9      0      0      0      0     8.4     8.4      8     0.15      0.1      0.1      0.1   100    15.6     0.517    -9.9    0.000     100        0.00     507.7    491.9    1.05   350.6     484.6     326.6     266.4     199.1     192.1     158.0    0.000     0.020     0.000     0.482     0.384    1.05     0.12    0.17      0   -9.90   -9.00       33.7       34.6       34.5       34.4       33.5       33.5       32.5       32.1       32.1       31.8       31.7       31.5        0.2        0.2        0.2        0.1        0.1        0.1        0.1        0.1        0.1        0.1        0.1        0.1      1.8       0.7       7.4      11.6      15.8    384.70
    14     1  2008    53     2     491.4     0.0      0.0    0.0    0.0    0.0     15.7      0.0   -9.90      0.6      0.6    100      0.1      0.1   100      0.6     0.6     100      8.9    1.07     -9      0      0      0      0     8.5     8.5     26     0.15      0.1      0.1      0.1   100    15.6     0.535    -9.9    0.000     100        0.00     491.4    475.6    1.07   338.7     490.2     330.4     268.8     201.0     194.0     159.9    0.000     0.021     0.000     0.461     0.361    1.07     0.12    0.17      0   -9.90   -9.00       31.1       32.0       32.0       32.0       31.9       31.9       31.8       31.7       31.6       31.6       31.5       31.5        0.1        0.1        0.1        0.1        0.1        0.1        0.1        0.1        0.1        0.1        0.1        0.1      0.0       0.6       4.8       8.9      13.1    384.70
    15     1  2008    54     2     483.8     0.2      0.0    0.0    0.2    0.0      7.3      0.0   -9.90      0.5      0.5     99      0.1      0.1   100      0.5     0.5     100      8.8    1.08      0      0      0      0      0     8.5     8.5     28     0.15      0.1      0.1      0.1   100    15.6     0.552    -9.9    0.000     100        0.00     483.8    468.2    1.08   336.4     495.8     334.1     271.3     202.8     195.8     161.7    0.000     0.013     0.000     0.448     0.350    1.08     0.11    0.16      0   -9.90   -9.00       30.7       31.3       31.3       31.3       31.3       31.3       31.2       31.2       31.2       31.2       31.2       31.2        0.1        0.1        0.1        0.1        0.1        0.1        0.1        0.1        0.1        0.1        0.1        0.1      0.2       0.5       3.9       8.8      13.7    384.70
    16     1  2008    55     2     480.4     0.2      0.0    0.0    0.2    0.0      2.5      0.0   -9.90      0.9      0.9     96      0.1      0.1   100      1.1     1.1      97     12.9    1.09      0      0      0      0      0     8.5     8.5      4     0.15      0.1      0.1      0.1   100    15.6     0.575    -9.9    0.000     100        0.00     480.4    464.9    1.09   337.4     501.3     337.8     277.5     207.3     199.9     163.5    0.000     0.006     0.000     0.443     0.347    1.09     0.11    0.16      0   -9.90   -9.00       29.9       31.1       31.1       31.1       31.1       31.1       31.1       31.1       31.1       31.1       31.1       31.1        0.1        0.1        0.1        0.1        0.1        0.1        0.1        0.1        0.1        0.1        0.1        0.1      0.2       1.0       9.1      12.9      16.8    384.70
    17     1  2008    56     2     479.0     0.0      0.0    0.0    0.0    0.0      0.8      0.0   -9.90      0.7      0.6     87      0.1      0.1   100      0.8     0.7      88     13.4    1.10      0      0      0      0      0     8.6     8.6      3     0.15      0.1      0.1      0.1   100    15.6     0.598    -9.9    0.000     100        0.00     479.0    463.5    1.10   339.9     506.8     341.5     278.6     208.2     200.9     165.3    0.000     0.002     0.000     0.441     0.347    1.10     0.11    0.16      0   -9.90   -9.00       29.2       31.0       31.0       31.0       31.0       31.0       31.0       31.0       31.0       31.0       31.0       31.0        0.1        0.1        0.1        0.1        0.1        0.1        0.1        0.1        0.1        0.1        0.1        0.1      0.0       0.7      10.6      13.4      16.2    384.70
    18     1  2008    57     2     478.2     0.0      0.0    0.0    0.0    0.0      0.2      0.0   -9.90      0.6      0.5     81      0.1      0.1   100      0.7     0.5      83     12.5    1.11      0      0      0      0      0     8.6     8.6      5     0.15      0.1      0.1      0.1   100    15.6     0.621    -9.9    0.000     100        0.00     478.2    462.7    1.11   342.9     512.2     345.2     280.9     210.0     202.7     167.0    0.000     0.001     0.000     0.440     0.349    1.11     0.11    0.16      0   -9.90   -9.00       28.6       31.0       31.0       31.0       31.0       31.0       31.0       31.0       31.0       31.0       31.0       31.0        0.1        0.1        0.1        0.1        0.1        0.1        0.1        0.1        0.1        0.1        0.1        0.1      0.0       0.6      10.1      12.5      14.9    384.70
    19     1  2008    58     2     477.6     0.0      0.0    0.0    0.0    0.0      0.1      0.0   -9.90      0.6      0.4     76      0.1      0.1   100      0.6     0.5      79     10.4    1.13      0      0      0      0      0     8.6     8.6     13     0.15      0.1      0.1      0.1   100    15.6     0.642    -9.9    0.000     100        0.00     477.6    462.1    1.13   346.0     517.7     348.9     283.9     212.2     204.8     168.8    0.000     0.000     0.000     0.440     0.351    1.13     0.11    0.16      0   -9.90   -9.00       28.1       31.0       31.0       31.0       31.0       31.0       31.0       31.0       31.0       31.0       31.0       31.0        0.1        0.1        0.1        0.1        0.1        0.1        0.1        0.1        0.1        0.1        0.1        0.1      0.0       0.6       6.8      10.4      14.1    384.70
    20     1  2008    59     2     477.4     0.4      0.0    0.0    0.4    0.0      0.0      0.0   -9.90      0.6      0.6    100      0.1      0.1   100      0.6     0.6     100      9.1    1.14      0      0      0      0      0     8.6     8.6     25     0.15      0.1      0.1      0.1   100    15.6     0.660    -9.9    0.000     100        0.00     477.4    461.9    1.14   349.4     523.0     352.5     286.8     214.4     206.9     170.6    0.000     0.000     0.000     0.440     0.354    1.14     0.11    0.16      0   -9.90   -9.00       27.9       31.0       31.0       31.0       31.0       31.0       31.0       31.0       31.0       31.0       31.0       31.0        0.1        0.1        0.1        0.1        0.1        0.1        0.1        0.1        0.1        0.1        0.1        0.1      0.4       0.6       4.9       9.1      13.2    384.70
    21     1  2008    60     2     477.1     0.2      0.0    0.0    0.2    0.0      0.0      0.0   -9.90      0.5      0.5     98      0.0      0.0   100      0.5     0.5      99      7.8    1.15      0      0      0      0      0     8.7     8.7     39     0.16      0.0      0.0      0.0   100    15.6     0.675    -9.9    0.000     100        0.00     477.1    461.6    1.15   352.7     528.4     356.1     289.1     216.2     208.6     172.3    0.000     0.000     0.000     0.440     0.356    1.15     0.11    0.16      0   -9.90   -9.00       27.6       31.0       31.0       31.0       31.0       31.0       31.0       31.0       31.0       31.0       31.0       31.0        0.1        0.1        0.1        0.1        0.1        0.1        0.1        0.1        0.1        0.1        0.1        0.1      0.2       0.5       4.5       7.8      11.2    384.70
    22     1  2008    61     2     567.2     7.0     84.0    0.0   90.9    0.1      0.0      0.0   -9.90      0.7      0.7    100      0.1      0.1   100      0.8     0.8     100     10.1    1.16      0      0      0      0      0     8.7     8.7     16     0.16      0.1      0.1      0.1   100    15.6     0.695    -9.9    0.000     100        0.00     567.2    551.7    1.16   446.4     533.7     359.7     293.4     219.3     211.6     174.0    0.269     0.000     0.000     0.709     0.627    1.16     0.18    0.21      0   -9.90   -9.00       45.2       46.0       46.0       46.0       46.0       43.5       31.0       31.0       31.0       31.0       31.0       31.0        0.3        0.3        0.3        0.3        0.3        0.2        0.1        0.1        0.1        0.1        0.1        0.1      7.0       0.7       3.8      10.1      16.3    384.70
    23     1  2008    62     2     527.5     7.8      0.0    0.0    7.4    0.4     45.6      0.0   -9.90      1.3      1.3    100      0.2      0.2   100      1.5     1.5     100     10.1    1.17      0      0      0      0      0     8.7     8.7     16     0.16      0.2      0.2      0.2   100    15.6     0.715    -9.9    0.000     100        0.00     527.5    511.3    1.17   404.7     539.0     363.2     301.1     224.7     216.7     175.8    0.000     0.066     0.000     0.643     0.538    1.17     0.16    0.21      0   -9.90   -9.00       39.5       34.6       34.6       34.6       34.6       34.6       34.5       33.8       33.2       32.9       32.6       32.4        0.2        0.2        0.2        0.2        0.2        0.2        0.1        0.1        0.1        0.1        0.1        0.1      7.8       1.4       8.6      10.1      11.5    384.70
    24     1  2008    63     2     498.1     0.0      0.0    0.0    0.0    0.0     28.4      0.0   -9.90      0.9      0.9    100      0.1      0.1   100      1.0     1.0     100      7.3    1.18      0      0      0      0      0     8.8     8.8     46     0.16      0.1      0.1      0.1   100    15.6     0.729    -9.9    0.000     100        0.00     498.1    482.2    1.18   381.3     544.2     366.8     301.2     225.0     217.0     177.5    0.000     0.045     0.000     0.598     0.492    1.18     0.14    0.20      0   -9.90   -9.00       32.2       33.2       32.5       32.3       32.2       32.1       32.1       32.1       32.0       31.9       31.9       31.8        0.2        0.2        0.2        0.2        0.2        0.1        0.1        0.1        0.1        0.1        0.1        0.1      0.0       1.0       2.8       7.3      11.9    384.70
    25     1  2008    64     2     485.8     0.0      0.0    0.0    0.0    0.0     11.5      0.0   -9.90      0.8      0.8    100      0.1      0.1   100      0.8     0.8     100      7.4    1.19      0      0      0      0      0     8.8     8.8     45     0.16      0.1      0.1      0.1   100    15.6     0.742    -9.9    0.000     100        0.00     485.8    470.1    1.19   374.4     549.4     370.3     302.7     226.2     218.3     179.2    0.000     0.028     0.000     0.571     0.468    1.19     0.13    0.20      0   -9.90   -9.00       30.5       31.6       31.5       31.5       31.4       31.4       31.4       31.4       31.4       31.3       31.3       31.3        0.1        0.1        0.2        0.2        0.1        0.1        0.1        0.1        0.1        0.1        0.1        0.1      0.0       0.8       1.1       7.4      13.7    384.70
    26     1  2008    65     2     480.8     0.0      0.0    0.0    0.0    0.0      4.0      0.0   -9.90      0.9      0.9    100      0.1      0.1   100      1.1     1.1     100      8.8    1.21      0      0      0      0      0     8.8     8.8     27     0.16      0.1      0.1      0.1   100    15.6     0.760    -9.9    0.000     100        0.00     480.8    465.2    1.21   373.7     554.6     373.8     307.0     229.3     221.2     180.9    0.000     0.013     0.000     0.558     0.459    1.21     0.13    0.19      0   -9.90   -9.00       29.5       31.2       31.1       31.1       31.1       31.1       31.1       31.1       31.1       31.1       31.1       31.1        0.1        0.1        0.1        0.1        0.1        0.1        0.1        0.1        0.1        0.1        0.1        0.1      0.0       1.0       3.0       8.8      14.7    384.70
    27     1  2008    66     2     479.1     0.0      0.0    0.0    0.0    0.0      1.3      0.0   -9.90      0.4      0.4    100      0.0      0.0   100      0.4     0.4     100      8.1    1.22      0      0      0      0      0     8.8     8.8     35     0.16      0.0      0.0      0.0   100    15.6     0.776    -9.9    0.000     100        0.00     479.1    463.6    1.22   375.7     559.8     377.3     305.6     228.6     220.6     182.5    0.000     0.005     0.000     0.553     0.458    1.22     0.13    0.19      0   -9.90   -9.00       29.1       31.1       31.0       31.0       31.0       31.0       31.0       31.0       31.0       31.0       31.0       31.0        0.1        0.1        0.1        0.1        0.1        0.1        0.1        0.1        0.1        0.1        0.1        0.1      0.0       0.4      -0.6       8.1      16.9    384.70
    28     1  2008    67     2     477.1     0.0      0.0    0.0    0.0    0.0      0.4      0.0   -9.90      1.4      1.4    100      0.2      0.2   100      1.6     1.6     100     10.1    1.23      0      0      0      0      0     8.8     8.8     15     0.16      0.2      0.2      0.2   100    15.6     0.797    -9.9    0.000      99        0.00     477.1    461.6    1.23   377.3     564.9     380.7     316.3     236.0     227.5     184.2    0.000     0.001     0.000     0.552     0.460    1.23     0.13    0.19      0   -9.90   -9.00       27.4       31.0       31.0       31.0       31.0       31.0       31.0       31.0       31.0       31.0       31.0       31.0        0.1        0.1        0.1        0.1        0.1        0.1        0.1        0.1        0.1        0.1        0.1        0.1      0.0       1.5       3.9      10.1      16.4    384.70
    29     1  2008    68     2     476.4     0.0      0.0    0.0    0.0    0.0      0.1      0.0   -9.90      0.6      0.6    100      0.1      0.1   100      0.6     0.6     100      8.4    1.24      0      0      0      0      0     8.9     8.9     32     0.16      0.1      0.1      0.1   100    15.6     0.813    -9.9    0.000      99        0.00     476.4    460.9    1.24   380.0     570.0     384.2     312.6     233.7     225.5     185.9    0.000     0.000     0.000     0.551     0.462    1.24     0.13    0.19      0   -9.90   -9.00       26.8       31.0       31.0       31.0       31.0       31.0       31.0       31.0       31.0       31.0       31.0       31.0        0.1        0.1        0.1        0.1        0.1        0.1        0.1        0.1        0.1        0.1        0.1        0.1      0.0       0.6       2.2       8.4      14.6    384.70
    30     1  2008    69     2     475.5     0.2      0.0    0.0    0.2    0.0      0.0      0.0   -9.90      0.9      0.9     97      0.1      0.1   100      1.1     1.0      98      9.6    1.25      0      0      0      0      0     8.9     8.9     20     0.16      0.1      0.1      0.1   100    15.6     0.833    -9.9    0.000      99        0.00     475.5    460.0    1.25   382.6     575.1     387.6     318.3     237.8     229.4     187.5    0.000     0.000     0.000     0.551     0.465    1.25     0.13    0.19      0   -9.90   -9.00       26.0       31.0       31.0       31.0       31.0       31.0       31.0       31.0       31.0       31.0       31.0       31.0        0.1        0.1        0.1        0.1        0.1        0.1        0.1        0.1        0.1        0.1        0.1        0.1      0.2       1.0       1.7       9.6      17.5    384.70
    31     1  2008    70     2     474.7     0.2      0.0    0.0    0.2    0.0      0.0      0.0   -9.90      0.8      0.8     96      0.1      0.1   100      1.0     0.9      96     12.4    1.26      0      0      0      0      0     8.9     8.9      5     0.16      0.1      0.1      0.1   100    15.6     0.857    -9.9    0.000      99        0.00     474.7    459.2    1.26   385.2     580.2     391.0     320.4     239.4     230.9     189.2    0.000     0.000     0.000     0.551     0.468    1.26     0.13    0.19      0   -9.90   -9.00       25.2       31.0       31.0       31.0       31.0       31.0       31.0       31.0       31.0       31.0       31.0       31.0        0.1        0.1        0.1        0.1        0.1        0.1        0.1        0.1        0.1        0.1        0.1        0.1      0.2       0.9       6.2      12.4      18.6    384.70
     1     2  2008    71     2     535.8     0.0     62.0    0.0   62.0    0.0      0.0      0.0   -9.90      0.8      0.8    100      0.1      0.1   100      1.0     1.0     100     11.3    1.27      0      0      0      0      0     8.9     8.9      9     0.16      0.1      0.1      0.1   100    15.6     0.880    -9.9    0.000      99        0.00     535.8    520.3    1.27   449.6     585.2     394.4     323.2     241.4     232.9     190.8    0.198     0.000     0.000     0.749     0.669    1.27     0.18    0.22      0   -9.90   -9.00       45.0       46.0       46.0       42.2       31.0       31.0       31.0       31.0       31.0       31.0       31.0       31.0        0.4        0.3        0.3        0.2        0.1        0.1        0.1        0.1        0.1        0.1        0.1        0.1      0.0       0.9       5.5      11.3      17.0    384.70
     2     2  2008    72     2     511.3     0.0      0.0    0.0    0.0    0.0     23.3      0.0   -9.90      1.0      1.0    100      0.2      0.2   100      1.2     1.2     100     11.8    1.28      0      0      0      0      0     9.0     9.0      7     0.16      0.2      0.2      0.2   100    15.6     0.903    -9.9    0.000      99        0.00     511.3    495.4    1.28   426.5     590.2     397.7     327.4     244.5     235.8     192.5    0.000     0.044     0.000     0.706     0.623    1.28     0.16    0.23      0   -9.90   -9.00       33.2       34.6       34.6       34.5       34.3       33.6       33.1       32.6       32.3       32.0       31.9       31.7        0.2        0.2        0.2        0.2        0.2        0.2        0.2        0.1        0.1        0.1        0.1        0.1      0.0       1.1       6.8      11.8      16.8    384.70
     3     2  2008    73     2     491.0     0.0      0.0    0.0    0.0    0.0     18.6      0.0   -9.90      1.4      1.4    100      0.2      0.2   100      1.6     1.6     100     14.9    1.29      0      0      0      0      0     9.0     9.0      0     0.16      0.2      0.2      0.2   100    15.6     0.928    -9.9    0.000      99        0.00     491.0    475.3    1.29   410.2     595.2     401.1     333.2     248.6     239.7     194.1    0.000     0.039     0.000     0.666     0.585    1.29     0.15    0.22      0   -9.90   -9.00       30.0       32.0       32.0       32.0       31.9       31.9       31.9       31.8       31.7       31.7       31.6       31.5        0.2        0.2        0.2        0.2        0.2        0.2        0.1        0.1        0.1        0.1        0.1        0.1      0.0       1.5      10.9      14.9      18.9    384.70
     4     2  2008    74     2     481.4     0.0      0.0    0.0    0.0    0.0      7.9      0.0   -9.90      1.5      1.5    100      0.3      0.3   100      1.8     1.8     100     14.8    1.30      0      0      0      0      0     9.0     9.0      0     0.16      0.3      0.3      0.3   100    15.6     0.953    -9.9    0.000      99        0.00     481.4    465.8    1.30   404.8     600.1     404.4     336.7     251.2     242.2     195.7    0.000     0.024     0.000     0.642     0.565    1.30     0.15    0.22      0   -9.90   -9.00       28.2       31.3       31.3       31.3       31.3       31.3       31.3       31.2       31.2       31.2       31.2       31.2        0.2        0.2        0.2        0.2        0.2        0.2        0.1        0.1        0.1        0.1        0.1        0.1      0.0       1.6      10.1      14.8      19.5    384.70
     5     2  2008    75     2     477.8     0.2      0.0    0.0    0.2    0.0      2.6      0.0   -9.90      1.1      1.1     96      0.2      0.2   100      1.3     1.3      96     12.8    1.32      0      0      0      0      0     9.0     9.0      4     0.16      0.2      0.2      0.2   100    15.6     0.977    -9.9    0.000      99        0.00     477.8    462.2    1.32   404.9     605.0     407.7     336.4     251.2     242.3     197.3    0.000     0.010     0.000     0.633     0.559    1.32     0.14    0.22      0   -9.90   -9.00       27.2       31.1       31.1       31.1       31.1       31.1       31.1       31.1       31.1       31.1       31.1       31.1        0.2        0.2        0.2        0.2        0.2        0.1        0.1        0.1        0.1        0.1        0.1        0.1      0.2       1.2      10.2      12.8      15.4    384.70
     6     2  2008    76     2     476.0     0.2      0.0    0.0    0.2    0.0      0.8      0.0   -9.90      1.0      1.0     97      0.2      0.2   100      1.2     1.2      98     12.1    1.33      0      0      0      0      0     9.1     9.1      6     0.16      0.2      0.2      0.2   100    15.6     1.001    -9.9    0.000      99        0.00     476.0    460.5    1.33   406.5     609.9     411.0     338.4     252.7     243.7     198.9    0.000     0.003     0.000     0.629     0.559    1.33     0.14    0.22      0   -9.90   -9.00       26.2       31.0       31.0       31.0       31.0       31.0       31.0       31.0       31.0       31.0       31.0       31.0        0.2        0.2        0.2        0.2        0.2        0.1        0.1        0.1        0.1        0.1        0.1        0.1      0.2       1.1       7.4      12.1      16.7    384.70
     7     2  2008    77     2     484.5     9.8      0.0    0.0    9.6    0.2      0.2      0.0   -9.90      0.7      0.7    100      0.1      0.1   100      0.9     0.9     100      9.8    1.34      0      0      0      0      0     9.1     9.1     18     0.16      0.1      0.1      0.1   100    15.6     1.021    -9.9    0.000      98        0.00     484.5    469.0    1.34   418.3     614.8     414.3     338.7     253.1     244.2     200.5    0.000     0.001     0.000     0.628     0.561    1.34     0.14    0.21      0   -9.90   -9.00       34.9       31.0       31.0       31.0       31.0       31.0       31.0       31.0       31.0       31.0       31.0       31.0        0.2        0.2        0.2        0.2        0.2        0.1        0.1        0.1        0.1        0.1        0.1        0.1      9.8       0.8       6.6       9.8      12.9    384.70
     8     2  2008    78     2     482.7     0.8      0.0    0.0    0.8    0.0      0.8      0.0   -9.90      1.6      1.6     99      0.3      0.3   100      1.9     1.8      99     13.3    1.35      0      0      0      0      0     9.1     9.1      3     0.16      0.3      0.3      0.3   100    15.6     1.046    -9.9    0.000      98        0.00     482.7    467.1    1.35   419.7     619.7     417.6     348.5     259.9     250.6     202.1    0.000     0.004     0.000     0.625     0.560    1.35     0.14    0.21      0   -9.90   -9.00       30.3       32.1       31.7       31.3       31.2       31.1       31.1       31.1       31.1       31.0       31.0       31.0        0.2        0.2        0.2        0.2        0.2        0.1        0.1        0.1        0.1        0.1        0.1        0.1      0.8       1.7      10.9      13.3      15.6    384.70
     9     2  2008    79     2     480.3     0.0      0.0    0.0    0.0    0.0      1.3      0.0   -9.90      1.1      0.9     82      0.1      0.1   100      1.3     1.1      84      8.8    1.36      0      0      0      0      0     9.1     9.1     27     0.16      0.1      0.1      0.1   100    15.6     1.064    -9.9    0.000      98        0.00     480.3    464.8    1.36   420.6     624.5     420.9     347.2     259.3     250.0     203.6    0.000     0.006     0.000     0.619     0.558    1.36     0.14    0.21      0   -9.90   -9.00       29.2       31.3       31.2       31.2       31.1       31.1       31.1       31.1       31.1       31.1       31.0       31.0        0.2        0.2        0.2        0.2        0.2        0.1        0.1        0.1        0.1        0.1        0.1        0.1      0.0       1.2       3.8       8.8      13.9    384.70
    10     2  2008    80     2     478.7     0.2      0.0    0.0    0.2    0.0      0.9      0.0   -9.90      0.8      0.8     98      0.1      0.1   100      0.9     0.9      98      7.3    1.37      0      0      0      0      0     9.1     9.1     47     0.16      0.1      0.1      0.1   100    15.6     1.078    -9.9    0.000      98        0.00     478.7    463.2    1.37   422.2     629.3     424.1     347.5     259.6     250.5     205.2    0.000     0.004     0.000     0.615     0.557    1.37     0.14    0.21      0   -9.90   -9.00       28.5       31.1       31.1       31.1       31.1       31.0       31.0       31.0       31.0       31.0       31.0       31.0        0.2        0.2        0.2        0.2        0.2        0.1        0.1        0.1        0.1        0.1        0.1        0.1      0.2       0.9       1.1       7.3      13.5    384.70
    11     2  2008    81     2     589.6     0.2    112.0    0.0  112.2    0.0      0.4      0.0   -9.90      0.7      0.7    100      0.1      0.1   100      0.8     0.8     100      7.5    1.38      0      0      0      0      0     9.1     9.1     44     0.16      0.1      0.1      0.1   100    15.6     1.092    -9.9    0.000      98        0.00     589.6    574.1    1.38   536.4     634.1     427.3     349.4     261.1     251.9     206.8    0.358     0.002     0.000     0.972     0.916    1.38     0.23    0.25      0   -9.90   -9.00       45.2       46.0       46.0       46.0       46.0       46.0       44.2       31.0       31.0       31.0       31.0       31.0        0.4        0.3        0.3        0.3        0.3        0.3        0.3        0.1        0.1        0.1        0.1        0.1      0.2       0.8       3.1       7.5      11.9    384.70
    12     2  2008    82     2     526.4     0.4      0.0    0.0    0.4    0.0     62.6      0.0   -9.90      0.8      0.8     99      0.1      0.1   100      1.0     0.9      99      8.9    1.39      0      0      0      0      0     9.2     9.2     27     0.16      0.1      0.1      0.1   100    15.6     1.111    -9.9    0.000      98        0.00     526.4    510.0    1.39   473.5     638.9     430.5     352.8     263.6     254.3     208.3    0.000     0.138     0.000     0.834     0.769    1.39     0.19    0.25      0   -9.90   -9.00       33.5       34.6       34.6       34.6       34.6       34.6       34.6       34.5       33.9       33.5       33.1       32.8        0.2        0.2        0.2        0.2        0.2        0.2        0.2        0.2        0.2        0.2        0.1        0.1      0.4       0.9       5.4       8.9      12.4    384.70
    13     2  2008    83     2     494.7     0.0      0.0    0.0    0.0    0.0     31.1      0.0   -9.90      0.7      0.5     67      0.1      0.1   100      0.8     0.6      70      7.3    1.40      0      0      0      0      0     9.2     9.2     47     0.16      0.1      0.1      0.1   100    15.6     1.124    -9.9    0.000      98        0.00     494.7    478.8    1.40   446.7     643.6     433.7     354.6     265.0     255.7     209.9    0.000     0.071     0.000     0.763     0.702    1.40     0.17    0.25      0   -9.90   -9.00       31.1       32.0       32.0       32.0       32.0       32.0       32.0       32.0       32.0       32.0       31.9       31.9        0.2        0.2        0.2        0.2        0.2        0.2        0.2        0.2        0.2        0.2        0.1        0.1      0.0       0.8       3.0       7.3      11.5    384.70
    14     2  2008    84     2     484.2     0.0      0.0    0.0    0.0    0.0     10.0      0.0   -9.90      0.7      0.5     61      0.1      0.1   100      0.8     0.5      63      6.5    1.41      0      0      0      0      0     9.2     9.2     58     0.16      0.1      0.1      0.1   100    15.6     1.135    -9.9    0.000      98        0.00     484.2    468.6    1.41   440.2     648.3     436.9     357.2     266.9     257.5     211.4    0.000     0.036     0.000     0.728     0.673    1.41     0.16    0.24      0   -9.90   -9.00       30.5       31.3       31.3       31.3       31.3       31.3       31.3       31.3       31.3       31.3       31.3       31.3        0.2        0.2        0.2        0.2        0.2        0.2        0.2        0.2        0.2        0.1        0.1        0.1      0.0       0.8       1.0       6.5      12.0    384.70
    15     2  2008    85     2     480.9     0.0      0.0    0.0    0.0    0.0      2.9      0.0   -9.90      0.7      0.4     57      0.0      0.0   100      0.7     0.4      59      5.5    1.42      0      0      0      0      0     9.2     9.2     71     0.16      0.0      0.0      0.0   100    15.6     1.143    -9.9    0.000      98        0.00     480.9    465.3    1.42   440.3     653.0     440.1     359.0     268.3     258.9     212.9    0.000     0.014     0.000     0.714     0.664    1.42     0.16    0.24      0   -9.90   -9.00       30.1       31.1       31.1       31.1       31.1       31.1       31.1       31.1       31.1       31.1       31.1       31.1        0.2        0.2        0.2        0.2        0.2        0.2        0.2        0.2        0.1        0.1        0.1        0.1      0.0       0.7      -1.0       5.5      12.0    384.70
    16     2  2008    86     2     479.6     0.0      0.0    0.0    0.0    0.0      0.9      0.0   -9.90      0.7      0.4     55      0.0      0.0   100      0.7     0.4      57      5.0    1.43      0      0      0      0      0     9.2     9.2     77     0.16      0.0      0.0      0.0   100    15.6     1.149    -9.9    0.000      98        0.00     479.6    464.1    1.43   442.3     657.7     443.3     361.5     270.2     260.8     214.5    0.000     0.004     0.000     0.709     0.663    1.43     0.16    0.23      0   -9.90   -9.00       29.7       31.0       31.0       31.0       31.0       31.0       31.0       31.0       31.0       31.0       31.0       31.0        0.2        0.2        0.2        0.2        0.2        0.2        0.2        0.2        0.1        0.1        0.1        0.1      0.0       0.7       2.0       5.0       8.0    384.70
    17     2  2008    87     2     479.0     0.0      0.0    0.0    0.0    0.0      0.3      0.0   -9.90      0.7      0.3     53      0.0      0.0   100      0.7     0.4      53      3.0    1.44      0      0      0      0      0     9.3     9.3     92     0.17      0.0      0.0      0.0   100    15.6     1.151    -9.9    0.000      98        0.00     479.0    463.5    1.44   444.9     662.4     446.4     364.1     272.1     262.6     216.0    0.000     0.001     0.000     0.708     0.665    1.44     0.16    0.23      0   -9.90   -9.00       29.4       31.0       31.0       31.0       31.0       31.0       31.0       31.0       31.0       31.0       31.0       31.0        0.2        0.2        0.2        0.2        0.2        0.2        0.2        0.2        0.1        0.1        0.1        0.1      0.0       0.7       1.0       3.0       5.0    384.70
    18     2  2008    88     2     478.0     0.0      0.0    0.0    0.0    0.0      0.1      0.0   -9.90      1.6      0.8     50      0.1      0.1   100      1.7     0.9      53      6.1    1.45      0      0      0      0      0     9.3     9.3     64     0.17      0.1      0.1      0.1   100    15.6     1.160    -9.9    0.000      98        0.00     478.0    462.5    1.45   447.1     667.0     449.5     375.1     279.8     269.7     217.5    0.000     0.000     0.000     0.708     0.669    1.45     0.16    0.23      0   -9.90   -9.00       28.5       31.0       31.0       31.0       31.0       31.0       31.0       31.0       31.0       31.0       31.0       31.0        0.2        0.2        0.2        0.2        0.2        0.2        0.2        0.2        0.1        0.1        0.1        0.1      0.0       1.7       0.3       6.1      11.8    384.70
    19     2  2008    89     2     477.4     0.0      0.0    0.0    0.0    0.0      0.0      0.0   -9.90      1.1      0.5     46      0.1      0.1   100      1.2     0.6      49      6.4    1.46      0      0      0      0      0     9.3     9.3     60     0.17      0.1      0.1      0.1   100    15.6     1.170    -9.9    0.000      98        0.00     477.4    461.9    1.46   449.6     671.7     452.6     373.5     278.8     268.9     219.0    0.000     0.000     0.000     0.707     0.672    1.46     0.16    0.23      0   -9.90   -9.00       27.9       31.0       31.0       31.0       31.0       31.0       31.0       31.0       31.0       31.0       31.0       31.0        0.2        0.2        0.2        0.2        0.2        0.2        0.2        0.2        0.1        0.1        0.1        0.1      0.0       1.2      -1.6       6.4      14.3    384.70
    20     2  2008    90     2     476.2     0.2      0.0    0.0    0.2    0.0      0.0      0.0   -9.90      1.3      1.2     94      0.2      0.2   100      1.5     1.4      95      8.9    1.47      0      0      0      0      0     9.3     9.3     27     0.17      0.2      0.2      0.2   100    15.6     1.189    -9.9    0.000      97        0.00     476.2    460.7    1.47   451.5     676.3     455.8     377.8     281.9     271.8     220.5    0.000     0.000     0.000     0.707     0.676    1.47     0.16    0.23      0   -9.90   -9.00       26.7       31.0       31.0       31.0       31.0       31.0       31.0       31.0       31.0       31.0       31.0       31.0        0.2        0.2        0.2        0.2        0.2        0.2        0.2        0.2        0.1        0.1        0.1        0.1      0.2       1.4       0.7       8.9      17.1    384.70
[...]
    15     5  2008   175     4     457.7     0.2      0.0    0.0    0.2    0.0      0.0      0.0   -9.90      4.1      1.8     43      0.5      0.5   100      4.6     2.3      50     16.1    1.50     -9      0      0      0      0     8.3     8.3      0     0.13      0.5      0.5      0.5   100    15.6     3.006    32.8    0.985      72        0.47     457.7    442.2    1.50   442.2     690.0     465.0     410.9     304.8     293.2     225.0    0.000     0.000     0.000     0.625     0.603    1.50     0.14    0.21      0   -9.90   -9.00       21.4       17.8       31.0       31.0       31.0       31.0       31.0       31.0       31.0       31.0       31.0       31.0        0.1        0.1        0.1        0.1        0.1        0.1        0.1        0.1        0.1        0.1        0.1        0.1      0.2       4.3       9.9      16.1      22.4    384.70
    16     5  2008   176     4     455.8     0.0      0.0    0.0    0.0    0.0      0.0      0.0   -9.90      4.4      1.3     29      0.6      0.6   100      5.0     1.9      38     18.9    1.50     -9      0      0      0      0     8.3     8.3      0     0.13      0.6      0.6      0.6   100    15.6     3.026    33.7    1.018      72        0.49     455.8    440.3    1.50   440.3     690.0     465.0     413.5     306.6     294.8     225.0    0.000     0.000     0.000     0.625     0.603    1.50     0.14    0.21      0   -9.90   -9.00       19.6       17.8       31.0       31.0       31.0       31.0       31.0       31.0       31.0       31.0       31.0       31.0        0.1        0.1        0.1        0.1        0.1        0.1        0.1        0.1        0.1        0.1        0.1        0.1      0.0       4.6      12.5      18.9      25.2    384.70
    17     5  2008   177     4     454.1     0.0      0.0    0.0    0.0    0.0      0.0      0.0   -9.90      4.8      1.1     22      0.7      0.7   100      5.5     1.7      31     21.2    1.50     -9      0      0      0      0     8.3     8.3      0     0.13      0.7      0.7      0.7   100    15.6     3.046    34.5    1.052      72        0.50     454.1    438.6    1.50   438.6     690.0     465.0     417.9     309.6     297.5     225.0    0.000     0.000     0.000     0.625     0.603    1.50     0.14    0.22      0   -9.90   -9.00       17.9       17.8       31.0       31.0       31.0       31.0       31.0       31.0       31.0       31.0       31.0       31.0        0.1        0.1        0.1        0.1        0.1        0.1        0.1        0.1        0.1        0.1        0.1        0.1      0.0       5.1      16.4      21.9      27.4    384.70
    18     5  2008   178     4     453.0     0.0      0.0    0.0    0.0    0.0      0.0      0.0   -9.90      3.6      0.6     17      0.5      0.5   100      4.1     1.1      27     19.6    1.50     -9      0      0      0      0     8.3     8.3      0     0.13      0.5      0.5      0.5   100    15.6     3.066    35.4    1.086      71        0.51     453.0    437.5    1.50   437.5     690.0     465.0     406.5     301.9     290.5     225.0    0.000     0.000     0.000     0.625     0.603    1.50     0.14    0.22      0   -9.90   -9.00       16.8       17.8       31.0       31.0       31.0       31.0       31.0       31.0       31.0       31.0       31.0       31.0        0.1        0.1        0.1        0.1        0.1        0.1        0.1        0.1        0.1        0.1        0.1        0.1      0.0       3.8      15.2      19.6      24.1    384.70
    19     5  2008   179     4     452.3     0.0      0.0    0.0    0.0    0.0      0.0      0.0   -9.90      2.7      0.4     14      0.4      0.4   100      3.0     0.7      25     19.9    1.50     -9      0      0      0      0     8.3     8.3      0     0.13      0.4      0.4      0.4   100    15.6     3.086    36.3    1.120      71        0.52     452.3    436.8    1.50   436.8     690.0     465.0     397.7     295.9     285.0     225.0    0.000     0.000     0.000     0.625     0.603    1.50     0.14    0.22      0   -9.90   -9.00       16.0       17.8       31.0       31.0       31.0       31.0       31.0       31.0       31.0       31.0       31.0       31.0        0.1        0.1        0.1        0.1        0.1        0.1        0.1        0.1        0.1        0.1        0.1        0.1      0.0       2.8      14.9      19.9      25.0    384.70
    20     5  2008   180     4     451.0     0.0      0.0    0.0    0.0    0.0      0.0      0.0   -9.90      5.0      0.6     12      0.7      0.7   100      5.7     1.3      23     21.3    1.50     -9      0      0      0      0     8.3     8.3      0     0.13      0.7      0.7      0.7   100    15.6     3.106    37.2    1.155      71        0.54     451.0    435.5    1.50   435.5     690.0     465.0     419.6     310.8     298.6     225.0    0.000     0.000     0.000     0.625     0.603    1.50     0.14    0.22      0   -9.90   -9.00       14.7       17.8       31.0       31.0       31.0       31.0       31.0       31.0       31.0       31.0       31.0       31.0        0.1        0.1        0.1        0.1        0.1        0.1        0.1        0.1        0.1        0.1        0.1        0.1      0.0       5.3      16.5      21.9      27.2    384.70
    21     5  2008   181     4     450.1     0.8      0.0    0.0    0.8    0.0      0.0      0.0   -9.90      4.2      1.1     27      0.6      0.6   100      4.7     1.7      36     19.7    1.50     -9      0      0      0      0     8.3     8.3      0     0.13      0.6      0.6      0.6   100    15.6     3.126    38.1    1.190      71        0.55     450.1    434.6    1.50   434.6     690.0     465.0     411.7     305.4     293.7     225.0    0.000     0.000     0.000     0.625     0.603    1.50     0.14    0.22      0   -9.90   -9.00       14.4       17.2       31.0       31.0       31.0       31.0       31.0       31.0       31.0       31.0       31.0       31.0        0.1        0.1        0.1        0.1        0.1        0.1        0.1        0.1        0.1        0.1        0.1        0.1      0.8       4.4      13.8      19.7      25.6    384.70
    22     5  2008   182     4     449.4     0.4      0.0    0.0    0.4    0.0      0.0      0.0   -9.90      3.2      0.7     20      0.4      0.4   100      3.7     1.1      30     18.2    1.50     -9      0      0      0      0     8.3     8.3      0     0.13      0.4      0.4      0.4   100    15.6     3.146    38.9    1.225      70        0.56     449.4    433.9    1.50   433.9     690.0     465.0     403.0     299.5     288.3     225.0    0.000     0.000     0.000     0.625     0.603    1.50     0.14    0.22      0   -9.90   -9.00       14.1       16.8       31.0       31.0       31.0       31.0       31.0       31.0       31.0       31.0       31.0       31.0        0.1        0.1        0.1        0.1        0.1        0.1        0.1        0.1        0.1        0.1        0.1        0.1      0.4       3.4      12.9      18.2      23.5    384.70
    23     5  2008   183     4     448.4     0.4      0.0    0.0    0.4    0.0      0.0      0.0   -9.90      4.7      0.7     16      0.6      0.6   100      5.3     1.4      26     17.4    1.50     -9      0      0      0      0     8.3     8.3      0     0.13      0.6      0.6      0.6   100    15.6     3.166    39.8    1.261      70        0.58     448.4    432.9    1.50   432.9     690.0     465.0     416.1     308.4     296.5     225.0    0.000     0.000     0.000     0.625     0.603    1.50     0.14    0.22      0   -9.90   -9.00       13.8       16.1       31.0       31.0       31.0       31.0       31.0       31.0       31.0       31.0       31.0       31.0        0.1        0.1        0.1        0.1        0.1        0.1        0.1        0.1        0.1        0.1        0.1        0.1      0.4       4.9      11.5      17.4      23.3    384.70
    24     5  2008   184     4     447.4     0.0      0.0    0.0    0.0    0.0      0.0      0.0   -9.90      4.8      0.4      7      0.7      0.7   100      5.5     1.0      18     19.2    1.50     -9      0      0      0      0     8.4     8.4      0     0.13      0.7      0.7      0.7   100    15.6     3.186    40.7    1.297      70        0.59     447.4    431.9    1.50   431.9     690.0     465.0     417.9     309.6     297.5     225.0    0.000     0.000     0.000     0.625     0.603    1.50     0.14    0.22      0   -9.90   -9.00       13.4       15.5       31.0       31.0       31.0       31.0       31.0       31.0       31.0       31.0       31.0       31.0        0.1        0.1        0.1        0.1        0.1        0.1        0.1        0.1        0.1        0.1        0.1        0.1      0.0       5.1      12.4      19.2      26.0    384.70
    25     5  2008   185     4     446.3     0.0      0.0    0.0    0.0    0.0      0.0      0.0   -9.90      5.2      0.3      6      0.7      0.7   100      5.9     1.0      18     19.4    1.50     -9      0      0      0      0     8.4     8.4      0     0.13      0.7      0.7      0.7   100    15.6     3.206    41.6    1.333      69        0.60     446.3    430.8    1.50   430.8     690.0     465.0     421.4     312.0     299.7     225.0    0.000     0.000     0.000     0.625     0.603    1.50     0.14    0.22      0   -9.90   -9.00       13.1       14.7       31.0       31.0       31.0       31.0       31.0       31.0       31.0       31.0       31.0       31.0        0.1        0.1        0.1        0.1        0.1        0.1        0.1        0.1        0.1        0.1        0.1        0.1      0.0       5.5      12.8      21.1      29.4    384.70
    26     5  2008   186     4     445.3     0.0      0.0    0.0    0.0    0.0      0.0      0.0   -9.90      5.3      0.3      5      0.7      0.7   100      6.0     1.0      17     20.1    1.50     -9      0      0      0      0     8.4     8.4      0     0.13      0.7      0.7      0.7   100    15.6     3.227    42.5    1.370      69        0.62     445.3    429.8    1.50   429.8     690.0     465.0     422.3     312.6     300.3     225.0    0.000     0.000     0.000     0.625     0.603    1.50     0.14    0.23      0   -9.90   -9.00       12.8       14.7       30.3       31.0       31.0       31.0       31.0       31.0       31.0       31.0       31.0       31.0        0.1        0.1        0.1        0.1        0.1        0.1        0.1        0.1        0.1        0.1        0.1        0.1      0.0       5.6      14.2      22.8      31.3    384.70
    27     5  2008   187     4     444.1     0.0      0.0    0.0    0.0    0.0      0.0      0.0   -9.90      6.4      0.3      5      0.9      0.9   100      7.2     1.2      17     20.6    1.50     -9      0      0      0      0     8.4     8.4      0     0.13      0.9      0.9      0.9   100    15.6     3.247    43.3    1.407      69        0.63     444.1    428.6    1.50   428.6     690.0     465.0     431.9     319.1     306.3     225.0    0.000     0.000     0.000     0.625     0.603    1.50     0.14    0.23      0   -9.90   -9.00       12.5       14.7       29.4       31.0       31.0       31.0       31.0       31.0       31.0       31.0       31.0       31.0        0.1        0.1        0.1        0.1        0.1        0.1        0.1        0.1        0.1        0.1        0.1        0.1      0.0       6.7      15.3      25.4      35.4    384.70
    28     5  2008   188     4     442.9     0.0      0.0    0.0    0.0    0.0      0.0      0.0   -9.90      6.4      0.3      5      0.9      0.9   100      7.2     1.2      16     22.8    1.50     -9      0      0      0      0     8.4     8.4      0     0.13      0.9      0.9      0.9   100    15.6     3.267    44.2    1.445      69        0.64     442.9    427.4    1.50   427.4     690.0     465.0     431.9     319.1     306.3     225.0    0.000     0.000     0.000     0.625     0.603    1.50     0.14    0.23      0   -9.90   -9.00       12.2       14.7       28.5       31.0       31.0       31.0       31.0       31.0       31.0       31.0       31.0       31.0        0.1        0.1        0.1        0.1        0.1        0.1        0.1        0.1        0.1        0.1        0.1        0.1      0.0       6.7      19.6      26.5      33.4    384.70
    29     5  2008   189     4     441.9     0.0      0.0    0.0    0.0    0.0      0.0      0.0   -9.90      5.9      0.3      5      0.8      0.8   100      6.7     1.1      16     21.4    1.50     -9      0      0      0      0     8.4     8.4      0     0.13      0.8      0.8      0.8   100    15.6     3.288    45.1    1.483      68        0.66     441.9    426.4    1.50   426.4     690.0     465.0     427.5     316.1     303.5     225.0    0.000     0.000     0.000     0.625     0.603    1.50     0.14    0.23      0   -9.90   -9.00       11.9       14.7       27.7       31.0       31.0       31.0       31.0       31.0       31.0       31.0       31.0       31.0        0.1        0.1        0.1        0.1        0.1        0.1        0.1        0.1        0.1        0.1        0.1        0.1      0.0       6.2      16.7      25.0      33.2    384.70
    30     5  2008   190     4     441.0     0.0      0.0    0.0    0.0    0.0      0.0      0.0   -9.90      4.9      0.2      4      0.7      0.7   100      5.6     0.9      16     21.4    1.50     -9      0      0      0      0     8.4     8.4      0     0.13      0.7      0.7      0.7   100    15.6     3.308    46.0    1.521      68        0.67     441.0    425.5    1.50   425.5     690.0     465.0     418.8     310.2     298.1     225.0    0.000     0.000     0.000     0.625     0.603    1.50     0.14    0.23      0   -9.90   -9.00       11.7       14.7       27.0       31.0       31.0       31.0       31.0       31.0       31.0       31.0       31.0       31.0        0.1        0.1        0.1        0.1        0.1        0.1        0.1        0.1        0.1        0.1        0.1        0.1      0.0       5.2      16.9      22.0      27.1    384.70
    31     5  2008   191     4     440.0     0.0      0.0    0.0    0.0    0.0      0.0      0.0   -9.90      5.1      0.2      4      0.7      0.7   100      5.8     0.9      16     20.0    1.50     -9      0      0      0      0     8.4     8.4      0     0.13      0.7      0.7      0.7   100    15.6     3.329    46.9    1.560      68        0.69     440.0    424.5    1.50   424.5     690.0     465.0     420.5     311.4     299.2     225.0    0.000     0.000     0.000     0.625     0.603    1.50     0.14    0.23      0   -9.90   -9.00       11.5       14.7       26.3       31.0       31.0       31.0       31.0       31.0       31.0       31.0       31.0       31.0        0.1        0.1        0.1        0.1        0.1        0.1        0.1        0.1        0.1        0.1        0.1        0.1      0.0       5.4      14.7      20.0      25.4    384.70
     1     6  2008   192     4     439.1     0.0      0.0    0.0    0.0    0.0      0.0      0.0   -9.90      5.2      0.2      4      0.7      0.7   100      5.9     0.9      16     20.5    1.50     -9      0      0      0      0     8.4     8.4      0     0.13      0.7      0.7      0.7   100    15.6     3.349    47.8    1.599      68        0.70     439.1    423.6    1.50   423.6     690.0     465.0     421.4     312.0     299.7     225.0    0.000     0.000     0.000     0.625     0.603    1.50     0.14    0.23      0   -9.90   -9.00       11.2       14.7       25.6       31.0       31.0       31.0       31.0       31.0       31.0       31.0       31.0       31.0        0.1        0.1        0.1        0.2        0.1        0.1        0.1        0.1        0.1        0.1        0.1        0.1      0.0       5.5      15.0      21.3      27.6    384.70
     2     6  2008   193     4     438.3     0.0      0.0    0.0    0.0    0.0      0.0      0.0   -9.90      4.4      0.2      4      0.6      0.6   100      5.0     0.8      16     21.4    1.50     -9      0      0      0      0     8.4     8.4      0     0.13      0.6      0.6      0.6   100    15.6     3.369    48.6    1.639      67        0.72     438.3    422.8    1.50   422.8     690.0     465.0     413.5     306.6     294.8     225.0    0.000     0.000     0.000     0.625     0.603    1.50     0.14    0.23      0   -9.90   -9.00       11.1       14.7       25.0       31.0       31.0       31.0       31.0       31.0       31.0       31.0       31.0       31.0        0.1        0.1        0.1        0.2        0.1        0.1        0.1        0.1        0.1        0.1        0.1        0.1      0.0       4.6      16.8      21.7      26.6    384.70
     3     6  2008   194     4     437.5     1.0      0.0    0.0    1.0    0.0      0.0      0.0   -9.90      4.6      1.1     25      0.6      0.6   100      5.3     1.8      34     22.1    1.50     -9      0      0      0      0     8.4     8.4      0     0.13      0.6      0.6      0.6   100    15.6     3.390    49.5    1.679      67        0.73     437.5    422.0    1.50   422.0     690.0     465.0     416.1     308.4     296.5     225.0    0.000     0.000     0.000     0.625     0.603    1.50     0.14    0.23      0   -9.90   -9.00       10.9       14.7       24.3       31.0       31.0       31.0       31.0       31.0       31.0       31.0       31.0       31.0        0.1        0.1        0.1        0.2        0.1        0.1        0.1        0.1        0.1        0.1        0.1        0.1      1.0       4.9      18.2      22.7      27.2    384.70
     4     6  2008   195     4     449.4    14.0      0.0    0.0   14.0    0.0      0.0      0.0   -9.90      1.9      1.9    100      0.3      0.3   100      2.2     2.2     100     19.7    1.50     -9      0      0      0      0     8.4     8.4      0     0.13      0.3      0.3      0.3   100    15.6     3.411    50.4    1.719      67        0.74     449.4    433.9    1.50   433.9     690.0     465.0     390.7     291.2     280.6     225.0    0.000     0.000     0.000     0.625     0.603    1.50     0.14    0.22      0   -9.90   -9.00       22.8       14.7       24.3       31.0       31.0       31.0       31.0       31.0       31.0       31.0       31.0       31.0        0.1        0.1        0.1        0.2        0.1        0.1        0.1        0.1        0.1        0.1        0.1        0.1     14.0       2.0      15.1      19.7      24.3    384.70
     5     6  2008   196     4     448.2     1.8      0.0    0.0    1.8    0.0      0.0      0.0   -9.90      3.8      2.4     63      0.5      0.5   100      4.3     2.9      68     19.6    1.50     -9      0      0      0      0     8.4     8.4      0     0.13      0.5      0.5      0.5   100    15.6     3.431    50.4    1.729      66        0.73     448.2    432.7    1.50   432.7     690.0     465.0     408.2     303.1     291.5     225.0    0.000     0.000     0.000     0.625     0.603    1.50     0.14    0.22      0   -9.90   -9.00       21.6       14.7       24.3       31.0       31.0       31.0       31.0       31.0       31.0       31.0       31.0       31.0        0.1        0.1        0.1        0.2        0.1        0.1        0.1        0.1        0.1        0.1        0.1        0.1      1.8       4.0      13.3      19.8      26.3    384.70
     6     6  2008   197     4     446.9     0.2      0.0    0.0    0.2    0.0      0.0      0.0   -9.90      3.6      1.0     29      0.5      0.5   100      4.1     1.5      37     18.7    1.50     -9      0      0      0      0     8.4     8.4      0     0.13      0.5      0.5      0.5   100    15.6     3.452    50.4    1.740      66        0.73     446.9    431.4    1.50   431.4     690.0     465.0     406.5     301.9     290.5     225.0    0.000     0.000     0.000     0.625     0.603    1.50     0.14    0.22      0   -9.90   -9.00       20.3       14.7       24.3       31.0       31.0       31.0       31.0       31.0       31.0       31.0       31.0       31.0        0.1        0.1        0.1        0.2        0.1        0.1        0.1        0.1        0.1        0.1        0.1        0.1      0.2       3.8      13.2      18.7      24.2    384.70
